<?xml version="1.0" encoding="UTF-8"?>

<!-- generated on 10/31/25 18:27:09 by Eclipse SUMO GUI Version 1.6.0
-->

<configuration xmlns:xsi="http://www.w3.org/2001/XMLSchema-instance" xsi:noNamespaceSchemaLocation="http://sumo.dlr.de/xsd/sumoConfiguration.xsd">

    <input>
        <net-file value="3-lanes.net.xml"/>
        <additional-files value="vtype.add.xml"/>

    </input>

</configuration>
