<?xml version="1.0" encoding="UTF-8"?>

<!-- generated on 11/04/25 21:29:18 by Eclipse SUMO netedit Version 1.6.0
<configuration xmlns:xsi="http://www.w3.org/2001/XMLSchema-instance" xsi:noNamespaceSchemaLocation="http://sumo.dlr.de/xsd/netconvertConfiguration.xsd">

    <input>
        <sumo-net-file value="C:\Users\unnom\masaru\rl-gnn\data\intersection.net.xml"/>
    </input>

    <output>
        <output-file value="C:\Users\unnom\masaru\rl-gnn\data\intersection.net.xml"/>
    </output>

    <processing>
        <geometry.min-radius.fix.railways value="false"/>
        <geometry.max-grade.fix value="false"/>
        <offset.disable-normalization value="true"/>
        <lefthand value="true"/>
    </processing>

    <junctions>
        <no-turnarounds value="true"/>
        <junctions.corner-detail value="5"/>
        <junctions.limit-turn-speed value="5.5"/>
        <rectangular-lane-cut value="false"/>
    </junctions>

    <pedestrian>
        <walkingareas value="false"/>
    </pedestrian>

    <netedit>
        <additional-files value="C:\Users\unnom\masaru\rl-gnn\data\detector.add.xml"/>
    </netedit>

    <report>
        <aggregate-warnings value="5"/>
    </report>

</configuration>
-->

<additional xmlns:xsi="http://www.w3.org/2001/XMLSchema-instance" xsi:noNamespaceSchemaLocation="http://sumo.dlr.de/xsd/additional_file.xsd">
    <e2Detector id="e2Detector_-gneE17_0_14" lane="-gneE17_0" pos="5.00" length="10.00" freq="900.00" file="e2Detector_-gneE17_0_14.xml"/>
    <e2Detector id="e2Detector_-gneE4_0_13" lane="-gneE4_0" pos="5.00" length="10.00" freq="900.00" file="e2Detector_-gneE4_0_13.xml"/>
    <e2Detector id="e2Detector_-gneE56_0_2" lane="-gneE56_0" pos="5.00" length="10.00" freq="900.00" file="e2Detector_-gneE56_0_2.xml"/>
    <e2Detector id="e2Detector_-gneE57_0_4" lane="-gneE57_0" pos="5.00" length="10.00" freq="900.00" file="e2Detector_-gneE57_0_4.xml"/>
    <e2Detector id="e2Detector_-gneE58_0_8" lane="-gneE58_0" pos="5.00" length="10.00" freq="900.00" file="e2Detector_-gneE58_0_8.xml"/>
    <e2Detector id="e2Detector_-gneE5_0_9" lane="-gneE5_0" pos="5.00" length="10.00" freq="900.00" file="e2Detector_-gneE5_0_9.xml"/>
    <e2Detector id="e2Detector_gneE56_0_15" lane="gneE56_0" pos="5.00" length="10.00" freq="900.00" file="e2Detector_gneE56_0_15.xml"/>
    <e2Detector id="e2Detector_gneE57_0_3" lane="gneE57_0" pos="5.00" length="10.00" freq="900.00" file="e2Detector_gneE57_0_3.xml"/>
    <e2Detector id="e2Detector_gneE58_0_7" lane="gneE58_0" pos="5.00" length="10.00" freq="900.00" file="e2Detector_gneE58_0_7.xml"/>
    <e2Detector id="e2Detector_gneE5_0_12" lane="gneE5_0" pos="5.00" length="10.00" freq="900.00" file="e2Detector_gneE5_0_12.xml"/>
    <e2Detector id="e2Detector_gneE60_0_10" lane="gneE60_0" pos="5.00" length="10.00" freq="900.00" file="e2Detector_gneE60_0_10.xml"/>
    <e2Detector id="e2Detector_gneE61_0_6" lane="gneE61_0" pos="5.00" length="10.00" freq="900.00" file="e2Detector_gneE61_0_6.xml"/>
    <e2Detector id="e2Detector_gneE62_0_5" lane="gneE62_0" pos="5.00" length="10.00" freq="900.00" file="e2Detector_gneE62_0_5.xml"/>
    <e2Detector id="e2Detector_gneE63_0_1" lane="gneE63_0" pos="5.00" length="10.00" freq="900.00" file="e2Detector_gneE63_0_1.xml"/>
    <e2Detector id="e2Detector_gneE64_0_0" lane="gneE64_0" pos="5.00" length="10.00" freq="900.00" file="e2Detector_gneE64_0_0.xml"/>
    <e2Detector id="e2Detector_gneE65_0_11" lane="gneE65_0" pos="5.00" length="10.00" freq="900.00" file="e2Detector_gneE65_0_11.xml"/>
</additional>
