<?xml version="1.0" encoding="UTF-8"?>

<!-- generated on 10/17/25 21:33:33 by Eclipse SUMO GUI Version 1.6.0
-->

<configuration xmlns:xsi="http://www.w3.org/2001/XMLSchema-instance" xsi:noNamespaceSchemaLocation="http://sumo.dlr.de/xsd/sumoConfiguration.xsd">

    <input>
        <net-file value="grid.net.xml"/>

        <additional-files value="vtype.add.xml"/>
    </input>

</configuration>
