<?xml version="1.0" encoding="UTF-8"?>

<!-- generated on 10/19/25 00:12:41 by Eclipse SUMO netedit Version 1.6.0
<configuration xmlns:xsi="http://www.w3.org/2001/XMLSchema-instance" xsi:noNamespaceSchemaLocation="http://sumo.dlr.de/xsd/netconvertConfiguration.xsd">

    <input>
        <sumo-net-file value="C:\Users\unnom\masaru\intersections-RL\data\grid.net.xml"/>
    </input>

    <output>
        <output-file value="C:\Users\unnom\masaru\intersections-RL\data\grid.net.xml"/>
    </output>

    <processing>
        <geometry.min-radius.fix.railways value="false"/>
        <geometry.max-grade.fix value="false"/>
        <offset.disable-normalization value="true"/>
        <lefthand value="true"/>
    </processing>

    <junctions>
        <no-turnarounds value="true"/>
        <junctions.corner-detail value="5"/>
        <junctions.limit-turn-speed value="5.5"/>
        <rectangular-lane-cut value="false"/>
    </junctions>

    <pedestrian>
        <walkingareas value="false"/>
    </pedestrian>

    <report>
        <aggregate-warnings value="5"/>
    </report>

</configuration>
-->

<net version="1.6" junctionCornerDetail="5" lefthand="true" limitTurnSpeed="5.50" xmlns:xsi="http://www.w3.org/2001/XMLSchema-instance" xsi:noNamespaceSchemaLocation="http://sumo.dlr.de/xsd/net_file.xsd">

    <location netOffset="0.00,0.00" convBoundary="-200.00,-200.00,200.00,200.00" origBoundary="-10000000000.00,-10000000000.00,10000000000.00,10000000000.00" projParameter="!"/>

    <edge id=":gneJ35_0" function="internal">
        <lane id=":gneJ35_0_0" index="0" speed="6.51" length="9.03" shape="-4.80,-10.40 -5.15,-7.95 -6.20,-6.20 -7.95,-5.15 -10.40,-4.80"/>
    </edge>
    <edge id=":gneJ35_1" function="internal">
        <lane id=":gneJ35_1_0" index="0" speed="7.33" length="11.73" shape="-4.80,-10.40 -5.15,-6.55 -6.20,-3.80 -7.95,-2.15 -10.40,-1.60"/>
    </edge>
    <edge id=":gneJ35_2" function="internal">
        <lane id=":gneJ35_2_0" index="0" speed="13.89" length="20.80" shape="-4.80,-10.40 -4.80,10.40"/>
    </edge>
    <edge id=":gneJ35_3" function="internal">
        <lane id=":gneJ35_3_0" index="0" speed="9.84" length="14.21" shape="-1.60,-10.40 -0.85,-3.75 1.40,1.00 3.20,2.37"/>
    </edge>
    <edge id=":gneJ35_4" function="internal">
        <lane id=":gneJ35_4_0" index="0" speed="9.26" length="11.78" shape="-1.60,-10.40 -0.85,-5.15 1.40,-1.40 3.20,-0.32"/>
    </edge>
    <edge id=":gneJ35_20" function="internal">
        <lane id=":gneJ35_20_0" index="0" speed="9.84" length="7.78" shape="3.20,2.37 5.15,3.85 10.40,4.80"/>
    </edge>
    <edge id=":gneJ35_21" function="internal">
        <lane id=":gneJ35_21_0" index="0" speed="9.26" length="7.58" shape="3.20,-0.32 5.15,0.85 10.40,1.60"/>
    </edge>
    <edge id=":gneJ35_5" function="internal">
        <lane id=":gneJ35_5_0" index="0" speed="6.51" length="9.03" shape="10.40,-4.80 7.95,-5.15 6.20,-6.20 5.15,-7.95 4.80,-10.40"/>
    </edge>
    <edge id=":gneJ35_6" function="internal">
        <lane id=":gneJ35_6_0" index="0" speed="7.33" length="11.73" shape="10.40,-4.80 6.55,-5.15 3.80,-6.20 2.15,-7.95 1.60,-10.40"/>
    </edge>
    <edge id=":gneJ35_7" function="internal">
        <lane id=":gneJ35_7_0" index="0" speed="13.89" length="20.80" shape="10.40,-4.80 -10.40,-4.80"/>
    </edge>
    <edge id=":gneJ35_8" function="internal">
        <lane id=":gneJ35_8_0" index="0" speed="9.84" length="14.21" shape="10.40,-1.60 3.75,-0.85 -1.00,1.40 -2.37,3.20"/>
    </edge>
    <edge id=":gneJ35_9" function="internal">
        <lane id=":gneJ35_9_0" index="0" speed="9.26" length="11.78" shape="10.40,-1.60 5.15,-0.85 1.40,1.40 0.32,3.20"/>
    </edge>
    <edge id=":gneJ35_22" function="internal">
        <lane id=":gneJ35_22_0" index="0" speed="9.84" length="7.78" shape="-2.37,3.20 -3.85,5.15 -4.80,10.40"/>
    </edge>
    <edge id=":gneJ35_23" function="internal">
        <lane id=":gneJ35_23_0" index="0" speed="9.26" length="7.58" shape="0.32,3.20 -0.85,5.15 -1.60,10.40"/>
    </edge>
    <edge id=":gneJ35_10" function="internal">
        <lane id=":gneJ35_10_0" index="0" speed="6.51" length="9.03" shape="4.80,10.40 5.15,7.95 6.20,6.20 7.95,5.15 10.40,4.80"/>
    </edge>
    <edge id=":gneJ35_11" function="internal">
        <lane id=":gneJ35_11_0" index="0" speed="7.33" length="11.73" shape="4.80,10.40 5.15,6.55 6.20,3.80 7.95,2.15 10.40,1.60"/>
    </edge>
    <edge id=":gneJ35_12" function="internal">
        <lane id=":gneJ35_12_0" index="0" speed="13.89" length="20.80" shape="4.80,10.40 4.80,-10.40"/>
    </edge>
    <edge id=":gneJ35_13" function="internal">
        <lane id=":gneJ35_13_0" index="0" speed="9.84" length="14.21" shape="1.60,10.40 0.85,3.75 -1.40,-1.00 -3.20,-2.37"/>
    </edge>
    <edge id=":gneJ35_14" function="internal">
        <lane id=":gneJ35_14_0" index="0" speed="9.26" length="11.78" shape="1.60,10.40 0.85,5.15 -1.40,1.40 -3.20,0.32"/>
    </edge>
    <edge id=":gneJ35_24" function="internal">
        <lane id=":gneJ35_24_0" index="0" speed="9.84" length="7.78" shape="-3.20,-2.37 -5.15,-3.85 -10.40,-4.80"/>
    </edge>
    <edge id=":gneJ35_25" function="internal">
        <lane id=":gneJ35_25_0" index="0" speed="9.26" length="7.58" shape="-3.20,0.32 -5.15,-0.85 -10.40,-1.60"/>
    </edge>
    <edge id=":gneJ35_15" function="internal">
        <lane id=":gneJ35_15_0" index="0" speed="6.51" length="9.03" shape="-10.40,4.80 -7.95,5.15 -6.20,6.20 -5.15,7.95 -4.80,10.40"/>
    </edge>
    <edge id=":gneJ35_16" function="internal">
        <lane id=":gneJ35_16_0" index="0" speed="7.33" length="11.73" shape="-10.40,4.80 -6.55,5.15 -3.80,6.20 -2.15,7.95 -1.60,10.40"/>
    </edge>
    <edge id=":gneJ35_17" function="internal">
        <lane id=":gneJ35_17_0" index="0" speed="13.89" length="20.80" shape="-10.40,4.80 10.40,4.80"/>
    </edge>
    <edge id=":gneJ35_18" function="internal">
        <lane id=":gneJ35_18_0" index="0" speed="9.84" length="14.21" shape="-10.40,1.60 -3.75,0.85 1.00,-1.40 2.37,-3.20"/>
    </edge>
    <edge id=":gneJ35_19" function="internal">
        <lane id=":gneJ35_19_0" index="0" speed="9.26" length="11.78" shape="-10.40,1.60 -5.15,0.85 -1.40,-1.40 -0.32,-3.20"/>
    </edge>
    <edge id=":gneJ35_26" function="internal">
        <lane id=":gneJ35_26_0" index="0" speed="9.84" length="7.78" shape="2.37,-3.20 3.85,-5.15 4.80,-10.40"/>
    </edge>
    <edge id=":gneJ35_27" function="internal">
        <lane id=":gneJ35_27_0" index="0" speed="9.26" length="7.58" shape="-0.32,-3.20 0.85,-5.15 1.60,-10.40"/>
    </edge>
    <edge id=":gneJ36_0" function="internal">
        <lane id=":gneJ36_0_0" index="0" speed="6.51" length="9.03" shape="-4.80,89.60 -5.15,92.05 -6.20,93.80 -7.95,94.85 -10.40,95.20"/>
    </edge>
    <edge id=":gneJ36_1" function="internal">
        <lane id=":gneJ36_1_0" index="0" speed="13.89" length="20.80" shape="-4.80,89.60 -4.80,110.40"/>
    </edge>
    <edge id=":gneJ36_2" function="internal">
        <lane id=":gneJ36_2_0" index="0" speed="9.84" length="21.99" shape="-1.60,89.60 -0.85,96.25 1.40,101.00 5.15,103.85 10.40,104.80"/>
    </edge>
    <edge id=":gneJ36_3" function="internal">
        <lane id=":gneJ36_3_0" index="0" speed="9.26" length="19.35" shape="-1.60,89.60 -0.85,94.85 1.40,98.60 5.15,100.85 10.40,101.60"/>
    </edge>
    <edge id=":gneJ36_4" function="internal">
        <lane id=":gneJ36_4_0" index="0" speed="6.51" length="9.03" shape="10.40,95.20 7.95,94.85 6.20,93.80 5.15,92.05 4.80,89.60"/>
    </edge>
    <edge id=":gneJ36_5" function="internal">
        <lane id=":gneJ36_5_0" index="0" speed="13.89" length="20.80" shape="10.40,95.20 -10.40,95.20"/>
    </edge>
    <edge id=":gneJ36_6" function="internal">
        <lane id=":gneJ36_6_0" index="0" speed="9.84" length="21.99" shape="10.40,98.40 3.75,99.15 -1.00,101.40 -3.85,105.15 -4.80,110.40"/>
    </edge>
    <edge id=":gneJ36_7" function="internal">
        <lane id=":gneJ36_7_0" index="0" speed="9.26" length="19.35" shape="10.40,98.40 5.15,99.15 1.40,101.40 -0.85,105.15 -1.60,110.40"/>
    </edge>
    <edge id=":gneJ36_8" function="internal">
        <lane id=":gneJ36_8_0" index="0" speed="6.51" length="9.03" shape="4.80,110.40 5.15,107.95 6.20,106.20 7.95,105.15 10.40,104.80"/>
    </edge>
    <edge id=":gneJ36_9" function="internal">
        <lane id=":gneJ36_9_0" index="0" speed="13.89" length="20.80" shape="4.80,110.40 4.80,89.60"/>
    </edge>
    <edge id=":gneJ36_10" function="internal">
        <lane id=":gneJ36_10_0" index="0" speed="9.84" length="21.99" shape="1.60,110.40 0.85,103.75 -1.40,99.00 -5.15,96.15 -10.40,95.20"/>
    </edge>
    <edge id=":gneJ36_11" function="internal">
        <lane id=":gneJ36_11_0" index="0" speed="9.26" length="19.35" shape="1.60,110.40 0.85,105.15 -1.40,101.40 -5.15,99.15 -10.40,98.40"/>
    </edge>
    <edge id=":gneJ36_12" function="internal">
        <lane id=":gneJ36_12_0" index="0" speed="6.51" length="9.03" shape="-10.40,104.80 -7.95,105.15 -6.20,106.20 -5.15,107.95 -4.80,110.40"/>
    </edge>
    <edge id=":gneJ36_13" function="internal">
        <lane id=":gneJ36_13_0" index="0" speed="13.89" length="20.80" shape="-10.40,104.80 10.40,104.80"/>
    </edge>
    <edge id=":gneJ36_14" function="internal">
        <lane id=":gneJ36_14_0" index="0" speed="9.84" length="21.99" shape="-10.40,101.60 -3.75,100.85 1.00,98.60 3.85,94.85 4.80,89.60"/>
    </edge>
    <edge id=":gneJ36_15" function="internal">
        <lane id=":gneJ36_15_0" index="0" speed="9.26" length="19.35" shape="-10.40,101.60 -5.15,100.85 -1.40,98.60 0.85,94.85 1.60,89.60"/>
    </edge>
    <edge id=":gneJ37_0" function="internal">
        <lane id=":gneJ37_0_0" index="0" speed="6.51" length="9.03" shape="98.40,-10.40 98.05,-7.95 97.00,-6.20 95.25,-5.15 92.80,-4.80"/>
    </edge>
    <edge id=":gneJ37_1" function="internal">
        <lane id=":gneJ37_1_0" index="0" speed="7.33" length="11.73" shape="98.40,-10.40 98.05,-6.55 97.00,-3.80 95.25,-2.15 92.80,-1.60"/>
    </edge>
    <edge id=":gneJ37_2" function="internal">
        <lane id=":gneJ37_2_0" index="0" speed="13.89" length="20.80" shape="98.40,-10.40 98.40,10.40"/>
    </edge>
    <edge id=":gneJ37_3" function="internal">
        <lane id=":gneJ37_3_0" index="0" speed="9.09" length="9.87" shape="98.40,-10.40 99.16,-5.56 101.01,-0.95"/>
    </edge>
    <edge id=":gneJ37_4" function="internal">
        <lane id=":gneJ37_4_0" index="0" speed="8.45" length="7.89" shape="98.40,-10.40 99.16,-6.43 100.91,-3.01"/>
    </edge>
    <edge id=":gneJ37_16" function="internal">
        <lane id=":gneJ37_16_0" index="0" speed="9.09" length="8.73" shape="101.01,-0.95 101.15,-0.60 103.97,3.25 107.20,4.80"/>
    </edge>
    <edge id=":gneJ37_17" function="internal">
        <lane id=":gneJ37_17_0" index="0" speed="8.45" length="8.05" shape="100.91,-3.01 101.15,-2.54 103.97,0.42 107.20,1.60"/>
    </edge>
    <edge id=":gneJ37_5" function="internal">
        <lane id=":gneJ37_5_0" index="0" speed="6.51" length="9.03" shape="107.20,-4.80 104.75,-5.15 103.00,-6.20 101.95,-7.95 101.60,-10.40"/>
    </edge>
    <edge id=":gneJ37_6" function="internal">
        <lane id=":gneJ37_6_0" index="0" speed="13.89" length="14.40" shape="107.20,-4.80 92.80,-4.80"/>
    </edge>
    <edge id=":gneJ37_7" function="internal">
        <lane id=":gneJ37_7_0" index="0" speed="8.67" length="9.44" shape="107.20,-1.60 103.35,-0.85 100.60,1.40 99.81,3.20"/>
    </edge>
    <edge id=":gneJ37_18" function="internal">
        <lane id=":gneJ37_18_0" index="0" speed="8.67" length="7.41" shape="99.81,3.20 98.95,5.15 98.40,10.40"/>
    </edge>
    <edge id=":gneJ37_8" function="internal">
        <lane id=":gneJ37_8_0" index="0" speed="6.51" length="9.03" shape="101.60,10.40 101.95,7.95 103.00,6.20 104.75,5.15 107.20,4.80"/>
    </edge>
    <edge id=":gneJ37_9" function="internal">
        <lane id=":gneJ37_9_0" index="0" speed="7.33" length="11.73" shape="101.60,10.40 101.95,6.55 103.00,3.80 104.75,2.15 107.20,1.60"/>
    </edge>
    <edge id=":gneJ37_10" function="internal">
        <lane id=":gneJ37_10_0" index="0" speed="13.89" length="20.80" shape="101.60,10.40 101.60,-10.40"/>
    </edge>
    <edge id=":gneJ37_11" function="internal">
        <lane id=":gneJ37_11_0" index="0" speed="9.09" length="9.87" shape="101.60,10.40 100.84,5.56 98.99,0.95"/>
    </edge>
    <edge id=":gneJ37_12" function="internal">
        <lane id=":gneJ37_12_0" index="0" speed="8.45" length="7.89" shape="101.60,10.40 100.84,6.43 99.09,3.01"/>
    </edge>
    <edge id=":gneJ37_19" function="internal">
        <lane id=":gneJ37_19_0" index="0" speed="9.09" length="8.73" shape="98.99,0.95 98.85,0.60 96.03,-3.25 92.80,-4.80"/>
    </edge>
    <edge id=":gneJ37_20" function="internal">
        <lane id=":gneJ37_20_0" index="0" speed="8.45" length="8.05" shape="99.09,3.01 98.85,2.54 96.03,-0.42 92.80,-1.60"/>
    </edge>
    <edge id=":gneJ37_13" function="internal">
        <lane id=":gneJ37_13_0" index="0" speed="6.51" length="9.03" shape="92.80,4.80 95.25,5.15 97.00,6.20 98.05,7.95 98.40,10.40"/>
    </edge>
    <edge id=":gneJ37_14" function="internal">
        <lane id=":gneJ37_14_0" index="0" speed="13.89" length="14.40" shape="92.80,4.80 107.20,4.80"/>
    </edge>
    <edge id=":gneJ37_15" function="internal">
        <lane id=":gneJ37_15_0" index="0" speed="8.67" length="9.44" shape="92.80,1.60 96.65,0.85 99.40,-1.40 100.19,-3.20"/>
    </edge>
    <edge id=":gneJ37_21" function="internal">
        <lane id=":gneJ37_21_0" index="0" speed="8.67" length="7.41" shape="100.19,-3.20 101.05,-5.15 101.60,-10.40"/>
    </edge>
    <edge id=":gneJ38_0" function="internal">
        <lane id=":gneJ38_0_0" index="0" speed="6.51" length="9.03" shape="-101.60,-10.40 -101.95,-7.95 -103.00,-6.20 -104.75,-5.15 -107.20,-4.80"/>
    </edge>
    <edge id=":gneJ38_1" function="internal">
        <lane id=":gneJ38_1_0" index="0" speed="7.33" length="11.73" shape="-101.60,-10.40 -101.95,-6.55 -103.00,-3.80 -104.75,-2.15 -107.20,-1.60"/>
    </edge>
    <edge id=":gneJ38_2" function="internal">
        <lane id=":gneJ38_2_0" index="0" speed="13.89" length="20.80" shape="-101.60,-10.40 -101.60,10.40"/>
    </edge>
    <edge id=":gneJ38_3" function="internal">
        <lane id=":gneJ38_3_0" index="0" speed="9.09" length="9.87" shape="-101.60,-10.40 -100.84,-5.56 -98.99,-0.95"/>
    </edge>
    <edge id=":gneJ38_4" function="internal">
        <lane id=":gneJ38_4_0" index="0" speed="8.45" length="7.89" shape="-101.60,-10.40 -100.84,-6.43 -99.09,-3.01"/>
    </edge>
    <edge id=":gneJ38_16" function="internal">
        <lane id=":gneJ38_16_0" index="0" speed="9.09" length="8.73" shape="-98.99,-0.95 -98.85,-0.60 -96.03,3.25 -92.80,4.80"/>
    </edge>
    <edge id=":gneJ38_17" function="internal">
        <lane id=":gneJ38_17_0" index="0" speed="8.45" length="8.05" shape="-99.09,-3.01 -98.85,-2.54 -96.03,0.42 -92.80,1.60"/>
    </edge>
    <edge id=":gneJ38_5" function="internal">
        <lane id=":gneJ38_5_0" index="0" speed="6.51" length="9.03" shape="-92.80,-4.80 -95.25,-5.15 -97.00,-6.20 -98.05,-7.95 -98.40,-10.40"/>
    </edge>
    <edge id=":gneJ38_6" function="internal">
        <lane id=":gneJ38_6_0" index="0" speed="13.89" length="14.40" shape="-92.80,-4.80 -107.20,-4.80"/>
    </edge>
    <edge id=":gneJ38_7" function="internal">
        <lane id=":gneJ38_7_0" index="0" speed="8.67" length="9.44" shape="-92.80,-1.60 -96.65,-0.85 -99.40,1.40 -100.19,3.20"/>
    </edge>
    <edge id=":gneJ38_18" function="internal">
        <lane id=":gneJ38_18_0" index="0" speed="8.67" length="7.41" shape="-100.19,3.20 -101.05,5.15 -101.60,10.40"/>
    </edge>
    <edge id=":gneJ38_8" function="internal">
        <lane id=":gneJ38_8_0" index="0" speed="6.51" length="9.03" shape="-98.40,10.40 -98.05,7.95 -97.00,6.20 -95.25,5.15 -92.80,4.80"/>
    </edge>
    <edge id=":gneJ38_9" function="internal">
        <lane id=":gneJ38_9_0" index="0" speed="7.33" length="11.73" shape="-98.40,10.40 -98.05,6.55 -97.00,3.80 -95.25,2.15 -92.80,1.60"/>
    </edge>
    <edge id=":gneJ38_10" function="internal">
        <lane id=":gneJ38_10_0" index="0" speed="13.89" length="20.80" shape="-98.40,10.40 -98.40,-10.40"/>
    </edge>
    <edge id=":gneJ38_11" function="internal">
        <lane id=":gneJ38_11_0" index="0" speed="9.09" length="9.87" shape="-98.40,10.40 -99.16,5.56 -101.01,0.95"/>
    </edge>
    <edge id=":gneJ38_12" function="internal">
        <lane id=":gneJ38_12_0" index="0" speed="8.45" length="7.89" shape="-98.40,10.40 -99.16,6.43 -100.91,3.01"/>
    </edge>
    <edge id=":gneJ38_19" function="internal">
        <lane id=":gneJ38_19_0" index="0" speed="9.09" length="8.73" shape="-101.01,0.95 -101.15,0.60 -103.97,-3.25 -107.20,-4.80"/>
    </edge>
    <edge id=":gneJ38_20" function="internal">
        <lane id=":gneJ38_20_0" index="0" speed="8.45" length="8.05" shape="-100.91,3.01 -101.15,2.54 -103.97,-0.42 -107.20,-1.60"/>
    </edge>
    <edge id=":gneJ38_13" function="internal">
        <lane id=":gneJ38_13_0" index="0" speed="6.51" length="9.03" shape="-107.20,4.80 -104.75,5.15 -103.00,6.20 -101.95,7.95 -101.60,10.40"/>
    </edge>
    <edge id=":gneJ38_14" function="internal">
        <lane id=":gneJ38_14_0" index="0" speed="13.89" length="14.40" shape="-107.20,4.80 -92.80,4.80"/>
    </edge>
    <edge id=":gneJ38_15" function="internal">
        <lane id=":gneJ38_15_0" index="0" speed="8.67" length="9.44" shape="-107.20,1.60 -103.35,0.85 -100.60,-1.40 -99.81,-3.20"/>
    </edge>
    <edge id=":gneJ38_21" function="internal">
        <lane id=":gneJ38_21_0" index="0" speed="8.67" length="7.41" shape="-99.81,-3.20 -98.95,-5.15 -98.40,-10.40"/>
    </edge>
    <edge id=":gneJ39_0" function="internal">
        <lane id=":gneJ39_0_0" index="0" speed="6.51" length="9.03" shape="-4.80,-110.40 -5.15,-107.95 -6.20,-106.20 -7.95,-105.15 -10.40,-104.80"/>
    </edge>
    <edge id=":gneJ39_1" function="internal">
        <lane id=":gneJ39_1_0" index="0" speed="13.89" length="20.80" shape="-4.80,-110.40 -4.80,-89.60"/>
    </edge>
    <edge id=":gneJ39_2" function="internal">
        <lane id=":gneJ39_2_0" index="0" speed="9.84" length="21.99" shape="-1.60,-110.40 -0.85,-103.75 1.40,-99.00 5.15,-96.15 10.40,-95.20"/>
    </edge>
    <edge id=":gneJ39_3" function="internal">
        <lane id=":gneJ39_3_0" index="0" speed="9.26" length="19.35" shape="-1.60,-110.40 -0.85,-105.15 1.40,-101.40 5.15,-99.15 10.40,-98.40"/>
    </edge>
    <edge id=":gneJ39_4" function="internal">
        <lane id=":gneJ39_4_0" index="0" speed="6.51" length="9.03" shape="10.40,-104.80 7.95,-105.15 6.20,-106.20 5.15,-107.95 4.80,-110.40"/>
    </edge>
    <edge id=":gneJ39_5" function="internal">
        <lane id=":gneJ39_5_0" index="0" speed="13.89" length="20.80" shape="10.40,-104.80 -10.40,-104.80"/>
    </edge>
    <edge id=":gneJ39_6" function="internal">
        <lane id=":gneJ39_6_0" index="0" speed="9.84" length="21.99" shape="10.40,-101.60 3.75,-100.85 -1.00,-98.60 -3.85,-94.85 -4.80,-89.60"/>
    </edge>
    <edge id=":gneJ39_7" function="internal">
        <lane id=":gneJ39_7_0" index="0" speed="9.26" length="19.35" shape="10.40,-101.60 5.15,-100.85 1.40,-98.60 -0.85,-94.85 -1.60,-89.60"/>
    </edge>
    <edge id=":gneJ39_8" function="internal">
        <lane id=":gneJ39_8_0" index="0" speed="6.51" length="9.03" shape="4.80,-89.60 5.15,-92.05 6.20,-93.80 7.95,-94.85 10.40,-95.20"/>
    </edge>
    <edge id=":gneJ39_9" function="internal">
        <lane id=":gneJ39_9_0" index="0" speed="13.89" length="20.80" shape="4.80,-89.60 4.80,-110.40"/>
    </edge>
    <edge id=":gneJ39_10" function="internal">
        <lane id=":gneJ39_10_0" index="0" speed="9.84" length="21.99" shape="1.60,-89.60 0.85,-96.25 -1.40,-101.00 -5.15,-103.85 -10.40,-104.80"/>
    </edge>
    <edge id=":gneJ39_11" function="internal">
        <lane id=":gneJ39_11_0" index="0" speed="9.26" length="19.35" shape="1.60,-89.60 0.85,-94.85 -1.40,-98.60 -5.15,-100.85 -10.40,-101.60"/>
    </edge>
    <edge id=":gneJ39_12" function="internal">
        <lane id=":gneJ39_12_0" index="0" speed="6.51" length="9.03" shape="-10.40,-95.20 -7.95,-94.85 -6.20,-93.80 -5.15,-92.05 -4.80,-89.60"/>
    </edge>
    <edge id=":gneJ39_13" function="internal">
        <lane id=":gneJ39_13_0" index="0" speed="13.89" length="20.80" shape="-10.40,-95.20 10.40,-95.20"/>
    </edge>
    <edge id=":gneJ39_14" function="internal">
        <lane id=":gneJ39_14_0" index="0" speed="9.84" length="21.99" shape="-10.40,-98.40 -3.75,-99.15 1.00,-101.40 3.85,-105.15 4.80,-110.40"/>
    </edge>
    <edge id=":gneJ39_15" function="internal">
        <lane id=":gneJ39_15_0" index="0" speed="9.26" length="19.35" shape="-10.40,-98.40 -5.15,-99.15 -1.40,-101.40 0.85,-105.15 1.60,-110.40"/>
    </edge>
    <edge id=":gneJ40_0" function="internal">
        <lane id=":gneJ40_0_0" index="0" speed="6.51" length="9.03" shape="98.40,-110.40 98.05,-107.95 97.00,-106.20 95.25,-105.15 92.80,-104.80"/>
    </edge>
    <edge id=":gneJ40_1" function="internal">
        <lane id=":gneJ40_1_0" index="0" speed="7.33" length="11.73" shape="98.40,-110.40 98.05,-106.55 97.00,-103.80 95.25,-102.15 92.80,-101.60"/>
    </edge>
    <edge id=":gneJ40_2" function="internal">
        <lane id=":gneJ40_2_0" index="0" speed="13.89" length="20.80" shape="98.40,-110.40 98.40,-89.60"/>
    </edge>
    <edge id=":gneJ40_3" function="internal">
        <lane id=":gneJ40_3_0" index="0" speed="9.09" length="9.87" shape="98.40,-110.40 99.16,-105.56 101.01,-100.95"/>
    </edge>
    <edge id=":gneJ40_4" function="internal">
        <lane id=":gneJ40_4_0" index="0" speed="8.45" length="7.89" shape="98.40,-110.40 99.16,-106.43 100.91,-103.01"/>
    </edge>
    <edge id=":gneJ40_16" function="internal">
        <lane id=":gneJ40_16_0" index="0" speed="9.09" length="8.73" shape="101.01,-100.95 101.15,-100.60 103.97,-96.75 107.20,-95.20"/>
    </edge>
    <edge id=":gneJ40_17" function="internal">
        <lane id=":gneJ40_17_0" index="0" speed="8.45" length="8.05" shape="100.91,-103.01 101.15,-102.54 103.97,-99.58 107.20,-98.40"/>
    </edge>
    <edge id=":gneJ40_5" function="internal">
        <lane id=":gneJ40_5_0" index="0" speed="6.51" length="9.03" shape="107.20,-104.80 104.75,-105.15 103.00,-106.20 101.95,-107.95 101.60,-110.40"/>
    </edge>
    <edge id=":gneJ40_6" function="internal">
        <lane id=":gneJ40_6_0" index="0" speed="13.89" length="14.40" shape="107.20,-104.80 92.80,-104.80"/>
    </edge>
    <edge id=":gneJ40_7" function="internal">
        <lane id=":gneJ40_7_0" index="0" speed="8.67" length="9.44" shape="107.20,-101.60 103.35,-100.85 100.60,-98.60 99.81,-96.80"/>
    </edge>
    <edge id=":gneJ40_18" function="internal">
        <lane id=":gneJ40_18_0" index="0" speed="8.67" length="7.41" shape="99.81,-96.80 98.95,-94.85 98.40,-89.60"/>
    </edge>
    <edge id=":gneJ40_8" function="internal">
        <lane id=":gneJ40_8_0" index="0" speed="6.51" length="9.03" shape="101.60,-89.60 101.95,-92.05 103.00,-93.80 104.75,-94.85 107.20,-95.20"/>
    </edge>
    <edge id=":gneJ40_9" function="internal">
        <lane id=":gneJ40_9_0" index="0" speed="7.33" length="11.73" shape="101.60,-89.60 101.95,-93.45 103.00,-96.20 104.75,-97.85 107.20,-98.40"/>
    </edge>
    <edge id=":gneJ40_10" function="internal">
        <lane id=":gneJ40_10_0" index="0" speed="13.89" length="20.80" shape="101.60,-89.60 101.60,-110.40"/>
    </edge>
    <edge id=":gneJ40_11" function="internal">
        <lane id=":gneJ40_11_0" index="0" speed="9.09" length="9.87" shape="101.60,-89.60 100.84,-94.44 98.99,-99.05"/>
    </edge>
    <edge id=":gneJ40_12" function="internal">
        <lane id=":gneJ40_12_0" index="0" speed="8.45" length="7.89" shape="101.60,-89.60 100.84,-93.57 99.09,-96.99"/>
    </edge>
    <edge id=":gneJ40_19" function="internal">
        <lane id=":gneJ40_19_0" index="0" speed="9.09" length="8.73" shape="98.99,-99.05 98.85,-99.40 96.03,-103.25 92.80,-104.80"/>
    </edge>
    <edge id=":gneJ40_20" function="internal">
        <lane id=":gneJ40_20_0" index="0" speed="8.45" length="8.05" shape="99.09,-96.99 98.85,-97.46 96.03,-100.42 92.80,-101.60"/>
    </edge>
    <edge id=":gneJ40_13" function="internal">
        <lane id=":gneJ40_13_0" index="0" speed="6.51" length="9.03" shape="92.80,-95.20 95.25,-94.85 97.00,-93.80 98.05,-92.05 98.40,-89.60"/>
    </edge>
    <edge id=":gneJ40_14" function="internal">
        <lane id=":gneJ40_14_0" index="0" speed="13.89" length="14.40" shape="92.80,-95.20 107.20,-95.20"/>
    </edge>
    <edge id=":gneJ40_15" function="internal">
        <lane id=":gneJ40_15_0" index="0" speed="8.67" length="9.44" shape="92.80,-98.40 96.65,-99.15 99.40,-101.40 100.19,-103.20"/>
    </edge>
    <edge id=":gneJ40_21" function="internal">
        <lane id=":gneJ40_21_0" index="0" speed="8.67" length="7.41" shape="100.19,-103.20 101.05,-105.15 101.60,-110.40"/>
    </edge>
    <edge id=":gneJ41_0" function="internal">
        <lane id=":gneJ41_0_0" index="0" speed="6.51" length="9.03" shape="-101.60,-110.40 -101.95,-107.95 -103.00,-106.20 -104.75,-105.15 -107.20,-104.80"/>
    </edge>
    <edge id=":gneJ41_1" function="internal">
        <lane id=":gneJ41_1_0" index="0" speed="7.33" length="11.73" shape="-101.60,-110.40 -101.95,-106.55 -103.00,-103.80 -104.75,-102.15 -107.20,-101.60"/>
    </edge>
    <edge id=":gneJ41_2" function="internal">
        <lane id=":gneJ41_2_0" index="0" speed="13.89" length="20.80" shape="-101.60,-110.40 -101.60,-89.60"/>
    </edge>
    <edge id=":gneJ41_3" function="internal">
        <lane id=":gneJ41_3_0" index="0" speed="9.09" length="9.87" shape="-101.60,-110.40 -100.84,-105.56 -98.99,-100.95"/>
    </edge>
    <edge id=":gneJ41_4" function="internal">
        <lane id=":gneJ41_4_0" index="0" speed="8.45" length="7.89" shape="-101.60,-110.40 -100.84,-106.43 -99.09,-103.01"/>
    </edge>
    <edge id=":gneJ41_16" function="internal">
        <lane id=":gneJ41_16_0" index="0" speed="9.09" length="8.73" shape="-98.99,-100.95 -98.85,-100.60 -96.03,-96.75 -92.80,-95.20"/>
    </edge>
    <edge id=":gneJ41_17" function="internal">
        <lane id=":gneJ41_17_0" index="0" speed="8.45" length="8.05" shape="-99.09,-103.01 -98.85,-102.54 -96.03,-99.58 -92.80,-98.40"/>
    </edge>
    <edge id=":gneJ41_5" function="internal">
        <lane id=":gneJ41_5_0" index="0" speed="6.51" length="9.03" shape="-92.80,-104.80 -95.25,-105.15 -97.00,-106.20 -98.05,-107.95 -98.40,-110.40"/>
    </edge>
    <edge id=":gneJ41_6" function="internal">
        <lane id=":gneJ41_6_0" index="0" speed="13.89" length="14.40" shape="-92.80,-104.80 -107.20,-104.80"/>
    </edge>
    <edge id=":gneJ41_7" function="internal">
        <lane id=":gneJ41_7_0" index="0" speed="8.67" length="9.44" shape="-92.80,-101.60 -96.65,-100.85 -99.40,-98.60 -100.19,-96.80"/>
    </edge>
    <edge id=":gneJ41_18" function="internal">
        <lane id=":gneJ41_18_0" index="0" speed="8.67" length="7.41" shape="-100.19,-96.80 -101.05,-94.85 -101.60,-89.60"/>
    </edge>
    <edge id=":gneJ41_8" function="internal">
        <lane id=":gneJ41_8_0" index="0" speed="6.51" length="9.03" shape="-98.40,-89.60 -98.05,-92.05 -97.00,-93.80 -95.25,-94.85 -92.80,-95.20"/>
    </edge>
    <edge id=":gneJ41_9" function="internal">
        <lane id=":gneJ41_9_0" index="0" speed="7.33" length="11.73" shape="-98.40,-89.60 -98.05,-93.45 -97.00,-96.20 -95.25,-97.85 -92.80,-98.40"/>
    </edge>
    <edge id=":gneJ41_10" function="internal">
        <lane id=":gneJ41_10_0" index="0" speed="13.89" length="20.80" shape="-98.40,-89.60 -98.40,-110.40"/>
    </edge>
    <edge id=":gneJ41_11" function="internal">
        <lane id=":gneJ41_11_0" index="0" speed="9.09" length="9.87" shape="-98.40,-89.60 -99.16,-94.44 -101.01,-99.05"/>
    </edge>
    <edge id=":gneJ41_12" function="internal">
        <lane id=":gneJ41_12_0" index="0" speed="8.45" length="7.89" shape="-98.40,-89.60 -99.16,-93.57 -100.91,-96.99"/>
    </edge>
    <edge id=":gneJ41_19" function="internal">
        <lane id=":gneJ41_19_0" index="0" speed="9.09" length="8.73" shape="-101.01,-99.05 -101.15,-99.40 -103.97,-103.25 -107.20,-104.80"/>
    </edge>
    <edge id=":gneJ41_20" function="internal">
        <lane id=":gneJ41_20_0" index="0" speed="8.45" length="8.05" shape="-100.91,-96.99 -101.15,-97.46 -103.97,-100.42 -107.20,-101.60"/>
    </edge>
    <edge id=":gneJ41_13" function="internal">
        <lane id=":gneJ41_13_0" index="0" speed="6.51" length="9.03" shape="-107.20,-95.20 -104.75,-94.85 -103.00,-93.80 -101.95,-92.05 -101.60,-89.60"/>
    </edge>
    <edge id=":gneJ41_14" function="internal">
        <lane id=":gneJ41_14_0" index="0" speed="13.89" length="14.40" shape="-107.20,-95.20 -92.80,-95.20"/>
    </edge>
    <edge id=":gneJ41_15" function="internal">
        <lane id=":gneJ41_15_0" index="0" speed="8.67" length="9.44" shape="-107.20,-98.40 -103.35,-99.15 -100.60,-101.40 -99.81,-103.20"/>
    </edge>
    <edge id=":gneJ41_21" function="internal">
        <lane id=":gneJ41_21_0" index="0" speed="8.67" length="7.41" shape="-99.81,-103.20 -98.95,-105.15 -98.40,-110.40"/>
    </edge>
    <edge id=":gneJ42_0" function="internal">
        <lane id=":gneJ42_0_0" index="0" speed="6.51" length="9.03" shape="-101.60,89.60 -101.95,92.05 -103.00,93.80 -104.75,94.85 -107.20,95.20"/>
    </edge>
    <edge id=":gneJ42_1" function="internal">
        <lane id=":gneJ42_1_0" index="0" speed="7.33" length="11.73" shape="-101.60,89.60 -101.95,93.45 -103.00,96.20 -104.75,97.85 -107.20,98.40"/>
    </edge>
    <edge id=":gneJ42_2" function="internal">
        <lane id=":gneJ42_2_0" index="0" speed="13.89" length="20.80" shape="-101.60,89.60 -101.60,110.40"/>
    </edge>
    <edge id=":gneJ42_3" function="internal">
        <lane id=":gneJ42_3_0" index="0" speed="9.09" length="9.87" shape="-101.60,89.60 -100.84,94.44 -98.99,99.05"/>
    </edge>
    <edge id=":gneJ42_4" function="internal">