<?xml version="1.0" encoding="UTF-8"?>

<!-- generated on 11/04/25 21:09:50 by Eclipse SUMO netedit Version 1.6.0
<configuration xmlns:xsi="http://www.w3.org/2001/XMLSchema-instance" xsi:noNamespaceSchemaLocation="http://sumo.dlr.de/xsd/netconvertConfiguration.xsd">

    <input>
        <sumo-net-file value="C:\Users\unnom\masaru\rl-gnn\data\intersection.net.xml"/>
    </input>

    <output>
        <output-file value="C:\Users\unnom\masaru\rl-gnn\data\intersection.net.xml"/>
    </output>

    <processing>
        <geometry.min-radius.fix.railways value="false"/>
        <geometry.max-grade.fix value="false"/>
        <offset.disable-normalization value="true"/>
        <lefthand value="true"/>
    </processing>

    <junctions>
        <no-turnarounds value="true"/>
        <junctions.corner-detail value="5"/>
        <junctions.limit-turn-speed value="5.5"/>
        <rectangular-lane-cut value="false"/>
    </junctions>

    <pedestrian>
        <walkingareas value="false"/>
    </pedestrian>

    <report>
        <aggregate-warnings value="5"/>
    </report>

</configuration>
-->

<net version="1.6" junctionCornerDetail="5" lefthand="true" limitTurnSpeed="5.50" xmlns:xsi="http://www.w3.org/2001/XMLSchema-instance" xsi:noNamespaceSchemaLocation="http://sumo.dlr.de/xsd/net_file.xsd">

    <location netOffset="0.00,0.00" convBoundary="-100.00,100.00,200.00,400.00" origBoundary="-10000000000.00,-10000000000.00,10000000000.00,10000000000.00" projParameter="!"/>

    <edge id=":gneJ4_0" function="internal">
        <lane id=":gneJ4_0_0" index="0" speed="6.51" length="9.03" shape="-1.60,192.80 -1.95,195.25 -3.00,197.00 -4.75,198.05 -7.20,198.40"/>
    </edge>
    <edge id=":gneJ4_1" function="internal">
        <lane id=":gneJ4_1_0" index="0" speed="13.89" length="14.40" shape="-1.60,192.80 -1.60,207.20"/>
    </edge>
    <edge id=":gneJ4_2" function="internal">
        <lane id=":gneJ4_2_0" index="0" speed="8.00" length="5.93" shape="-1.60,192.80 -1.05,196.65 0.00,198.40"/>
    </edge>
    <edge id=":gneJ4_12" function="internal">
        <lane id=":gneJ4_12_0" index="0" speed="8.00" length="8.26" shape="0.00,198.40 0.60,199.40 3.35,201.05 7.20,201.60"/>
    </edge>
    <edge id=":gneJ4_3" function="internal">
        <lane id=":gneJ4_3_0" index="0" speed="6.51" length="9.03" shape="7.20,198.40 4.75,198.05 3.00,197.00 1.95,195.25 1.60,192.80"/>
    </edge>
    <edge id=":gneJ4_4" function="internal">
        <lane id=":gneJ4_4_0" index="0" speed="13.89" length="14.40" shape="7.20,198.40 -7.20,198.40"/>
    </edge>
    <edge id=":gneJ4_5" function="internal">
        <lane id=":gneJ4_5_0" index="0" speed="8.00" length="14.19" shape="7.20,198.40 3.35,198.95 0.60,200.60 -1.05,203.35 -1.60,207.20"/>
    </edge>
    <edge id=":gneJ4_6" function="internal">
        <lane id=":gneJ4_6_0" index="0" speed="6.51" length="9.03" shape="1.60,207.20 1.95,204.75 3.00,203.00 4.75,201.95 7.20,201.60"/>
    </edge>
    <edge id=":gneJ4_7" function="internal">
        <lane id=":gneJ4_7_0" index="0" speed="13.89" length="14.40" shape="1.60,207.20 1.60,192.80"/>
    </edge>
    <edge id=":gneJ4_8" function="internal">
        <lane id=":gneJ4_8_0" index="0" speed="8.00" length="5.93" shape="1.60,207.20 1.05,203.35 -0.00,201.60"/>
    </edge>
    <edge id=":gneJ4_13" function="internal">
        <lane id=":gneJ4_13_0" index="0" speed="8.00" length="8.26" shape="-0.00,201.60 -0.60,200.60 -3.35,198.95 -7.20,198.40"/>
    </edge>
    <edge id=":gneJ4_9" function="internal">
        <lane id=":gneJ4_9_0" index="0" speed="6.51" length="9.03" shape="-7.20,201.60 -4.75,201.95 -3.00,203.00 -1.95,204.75 -1.60,207.20"/>
    </edge>
    <edge id=":gneJ4_10" function="internal">
        <lane id=":gneJ4_10_0" index="0" speed="13.89" length="14.40" shape="-7.20,201.60 7.20,201.60"/>
    </edge>
    <edge id=":gneJ4_11" function="internal">
        <lane id=":gneJ4_11_0" index="0" speed="8.00" length="14.19" shape="-7.20,201.60 -3.35,201.05 -0.60,199.40 1.05,196.65 1.60,192.80"/>
    </edge>
    <edge id=":gneJ41_0" function="internal">
        <lane id=":gneJ41_0_0" index="0" speed="6.51" length="9.03" shape="-1.60,292.80 -1.95,295.25 -3.00,297.00 -4.75,298.05 -7.20,298.40"/>
    </edge>
    <edge id=":gneJ41_1" function="internal">
        <lane id=":gneJ41_1_0" index="0" speed="13.89" length="14.40" shape="-1.60,292.80 -1.60,307.20"/>
    </edge>
    <edge id=":gneJ41_2" function="internal">
        <lane id=":gneJ41_2_0" index="0" speed="8.00" length="5.93" shape="-1.60,292.80 -1.05,296.65 -0.00,298.40"/>
    </edge>
    <edge id=":gneJ41_12" function="internal">
        <lane id=":gneJ41_12_0" index="0" speed="8.00" length="8.26" shape="-0.00,298.40 0.60,299.40 3.35,301.05 7.20,301.60"/>
    </edge>
    <edge id=":gneJ41_3" function="internal">
        <lane id=":gneJ41_3_0" index="0" speed="6.51" length="9.03" shape="7.20,298.40 4.75,298.05 3.00,297.00 1.95,295.25 1.60,292.80"/>
    </edge>
    <edge id=":gneJ41_4" function="internal">
        <lane id=":gneJ41_4_0" index="0" speed="13.89" length="14.40" shape="7.20,298.40 -7.20,298.40"/>
    </edge>
    <edge id=":gneJ41_5" function="internal">
        <lane id=":gneJ41_5_0" index="0" speed="8.00" length="14.19" shape="7.20,298.40 3.35,298.95 0.60,300.60 -1.05,303.35 -1.60,307.20"/>
    </edge>
    <edge id=":gneJ41_6" function="internal">
        <lane id=":gneJ41_6_0" index="0" speed="6.51" length="9.03" shape="1.60,307.20 1.95,304.75 3.00,303.00 4.75,301.95 7.20,301.60"/>
    </edge>
    <edge id=":gneJ41_7" function="internal">
        <lane id=":gneJ41_7_0" index="0" speed="13.89" length="14.40" shape="1.60,307.20 1.60,292.80"/>
    </edge>
    <edge id=":gneJ41_8" function="internal">
        <lane id=":gneJ41_8_0" index="0" speed="8.00" length="5.93" shape="1.60,307.20 1.05,303.35 0.00,301.60"/>
    </edge>
    <edge id=":gneJ41_13" function="internal">
        <lane id=":gneJ41_13_0" index="0" speed="8.00" length="8.26" shape="0.00,301.60 -0.60,300.60 -3.35,298.95 -7.20,298.40"/>
    </edge>
    <edge id=":gneJ41_9" function="internal">
        <lane id=":gneJ41_9_0" index="0" speed="6.51" length="9.03" shape="-7.20,301.60 -4.75,301.95 -3.00,303.00 -1.95,304.75 -1.60,307.20"/>
    </edge>
    <edge id=":gneJ41_10" function="internal">
        <lane id=":gneJ41_10_0" index="0" speed="13.89" length="14.40" shape="-7.20,301.60 7.20,301.60"/>
    </edge>
    <edge id=":gneJ41_11" function="internal">
        <lane id=":gneJ41_11_0" index="0" speed="8.00" length="14.19" shape="-7.20,301.60 -3.35,301.05 -0.60,299.40 1.05,296.65 1.60,292.80"/>
    </edge>
    <edge id=":gneJ42_0" function="internal">
        <lane id=":gneJ42_0_0" index="0" speed="6.51" length="9.03" shape="98.40,292.80 98.05,295.25 97.00,297.00 95.25,298.05 92.80,298.40"/>
    </edge>
    <edge id=":gneJ42_1" function="internal">
        <lane id=":gneJ42_1_0" index="0" speed="13.89" length="14.40" shape="98.40,292.80 98.40,307.20"/>
    </edge>
    <edge id=":gneJ42_2" function="internal">
        <lane id=":gneJ42_2_0" index="0" speed="8.00" length="5.93" shape="98.40,292.80 98.95,296.65 100.00,298.40"/>
    </edge>
    <edge id=":gneJ42_12" function="internal">
        <lane id=":gneJ42_12_0" index="0" speed="8.00" length="8.26" shape="100.00,298.40 100.60,299.40 103.35,301.05 107.20,301.60"/>
    </edge>
    <edge id=":gneJ42_3" function="internal">
        <lane id=":gneJ42_3_0" index="0" speed="6.51" length="9.03" shape="107.20,298.40 104.75,298.05 103.00,297.00 101.95,295.25 101.60,292.80"/>
    </edge>
    <edge id=":gneJ42_4" function="internal">
        <lane id=":gneJ42_4_0" index="0" speed="13.89" length="14.40" shape="107.20,298.40 92.80,298.40"/>
    </edge>
    <edge id=":gneJ42_5" function="internal">
        <lane id=":gneJ42_5_0" index="0" speed="8.00" length="14.19" shape="107.20,298.40 103.35,298.95 100.60,300.60 98.95,303.35 98.40,307.20"/>
    </edge>
    <edge id=":gneJ42_6" function="internal">
        <lane id=":gneJ42_6_0" index="0" speed="6.51" length="9.03" shape="101.60,307.20 101.95,304.75 103.00,303.00 104.75,301.95 107.20,301.60"/>
    </edge>
    <edge id=":gneJ42_7" function="internal">
        <lane id=":gneJ42_7_0" index="0" speed="13.89" length="14.40" shape="101.60,307.20 101.60,292.80"/>
    </edge>
    <edge id=":gneJ42_8" function="internal">
        <lane id=":gneJ42_8_0" index="0" speed="8.00" length="5.93" shape="101.60,307.20 101.05,303.35 100.00,301.60"/>
    </edge>
    <edge id=":gneJ42_13" function="internal">
        <lane id=":gneJ42_13_0" index="0" speed="8.00" length="8.26" shape="100.00,301.60 99.40,300.60 96.65,298.95 92.80,298.40"/>
    </edge>
    <edge id=":gneJ42_9" function="internal">
        <lane id=":gneJ42_9_0" index="0" speed="6.51" length="9.03" shape="92.80,301.60 95.25,301.95 97.00,303.00 98.05,304.75 98.40,307.20"/>
    </edge>
    <edge id=":gneJ42_10" function="internal">
        <lane id=":gneJ42_10_0" index="0" speed="13.89" length="14.40" shape="92.80,301.60 107.20,301.60"/>
    </edge>
    <edge id=":gneJ42_11" function="internal">
        <lane id=":gneJ42_11_0" index="0" speed="8.00" length="14.19" shape="92.80,301.60 96.65,301.05 99.40,299.40 101.05,296.65 101.60,292.80"/>
    </edge>
    <edge id=":gneJ5_0" function="internal">
        <lane id=":gneJ5_0_0" index="0" speed="6.51" length="9.03" shape="98.40,192.80 98.05,195.25 97.00,197.00 95.25,198.05 92.80,198.40"/>
    </edge>
    <edge id=":gneJ5_1" function="internal">
        <lane id=":gneJ5_1_0" index="0" speed="13.89" length="14.40" shape="98.40,192.80 98.40,207.20"/>
    </edge>
    <edge id=":gneJ5_2" function="internal">
        <lane id=":gneJ5_2_0" index="0" speed="8.00" length="5.93" shape="98.40,192.80 98.95,196.65 100.00,198.40"/>
    </edge>
    <edge id=":gneJ5_12" function="internal">
        <lane id=":gneJ5_12_0" index="0" speed="8.00" length="8.26" shape="100.00,198.40 100.60,199.40 103.35,201.05 107.20,201.60"/>
    </edge>
    <edge id=":gneJ5_3" function="internal">
        <lane id=":gneJ5_3_0" index="0" speed="6.51" length="9.03" shape="107.20,198.40 104.75,198.05 103.00,197.00 101.95,195.25 101.60,192.80"/>
    </edge>
    <edge id=":gneJ5_4" function="internal">
        <lane id=":gneJ5_4_0" index="0" speed="13.89" length="14.40" shape="107.20,198.40 92.80,198.40"/>
    </edge>
    <edge id=":gneJ5_5" function="internal">
        <lane id=":gneJ5_5_0" index="0" speed="8.00" length="14.19" shape="107.20,198.40 103.35,198.95 100.60,200.60 98.95,203.35 98.40,207.20"/>
    </edge>
    <edge id=":gneJ5_6" function="internal">
        <lane id=":gneJ5_6_0" index="0" speed="6.51" length="9.03" shape="101.60,207.20 101.95,204.75 103.00,203.00 104.75,201.95 107.20,201.60"/>
    </edge>
    <edge id=":gneJ5_7" function="internal">
        <lane id=":gneJ5_7_0" index="0" speed="13.89" length="14.40" shape="101.60,207.20 101.60,192.80"/>
    </edge>
    <edge id=":gneJ5_8" function="internal">
        <lane id=":gneJ5_8_0" index="0" speed="8.00" length="5.93" shape="101.60,207.20 101.05,203.35 100.00,201.60"/>
    </edge>
    <edge id=":gneJ5_13" function="internal">
        <lane id=":gneJ5_13_0" index="0" speed="8.00" length="8.26" shape="100.00,201.60 99.40,200.60 96.65,198.95 92.80,198.40"/>
    </edge>
    <edge id=":gneJ5_9" function="internal">
        <lane id=":gneJ5_9_0" index="0" speed="6.51" length="9.03" shape="92.80,201.60 95.25,201.95 97.00,203.00 98.05,204.75 98.40,207.20"/>
    </edge>
    <edge id=":gneJ5_10" function="internal">
        <lane id=":gneJ5_10_0" index="0" speed="13.89" length="14.40" shape="92.80,201.60 107.20,201.60"/>
    </edge>
    <edge id=":gneJ5_11" function="internal">
        <lane id=":gneJ5_11_0" index="0" speed="8.00" length="14.19" shape="92.80,201.60 96.65,201.05 99.40,199.40 101.05,196.65 101.60,192.80"/>
    </edge>

    <edge id="-gneE17" from="gneJ4" to="gneJ12" priority="-1">
        <lane id="-gneE17_0" index="0" speed="13.89" length="92.80" shape="-7.20,198.40 -100.00,198.40"/>
    </edge>
    <edge id="-gneE4" from="gneJ4" to="gneJ0" priority="-1">
        <lane id="-gneE4_0" index="0" speed="13.89" length="92.80" shape="1.60,192.80 1.60,100.00"/>
    </edge>
    <edge id="-gneE5" from="gneJ5" to="gneJ4" priority="-1">
        <lane id="-gneE5_0" index="0" speed="13.89" length="85.60" shape="92.80,198.40 7.20,198.40"/>
    </edge>
    <edge id="-gneE56" from="gneJ41" to="gneJ4" priority="-1">
        <lane id="-gneE56_0" index="0" speed="13.89" length="85.60" shape="1.60,292.80 1.60,207.20"/>
    </edge>
    <edge id="-gneE57" from="gneJ42" to="gneJ41" priority="1">
        <lane id="-gneE57_0" index="0" speed="13.89" length="85.60" shape="92.80,298.40 7.20,298.40"/>
    </edge>
    <edge id="-gneE58" from="gneJ5" to="gneJ42" priority="-1">
        <lane id="-gneE58_0" index="0" speed="13.89" length="85.60" shape="98.40,207.20 98.40,292.80"/>
    </edge>
    <edge id="-gneE60" from="gneJ44" to="gneJ5" priority="-1">
        <lane id="-gneE60_0" index="0" speed="13.89" length="92.80" shape="98.40,100.00 98.40,192.80"/>
    </edge>
    <edge id="-gneE61" from="gneJ45" to="gneJ42" priority="-1">
        <lane id="-gneE61_0" index="0" speed="13.89" length="92.80" shape="200.00,298.40 107.20,298.40"/>
    </edge>
    <edge id="-gneE62" from="gneJ46" to="gneJ42" priority="-1">
        <lane id="-gneE62_0" index="0" speed="13.89" length="92.80" shape="101.60,400.00 101.60,307.20"/>
    </edge>
    <edge id="-gneE63" from="gneJ47" to="gneJ41" priority="1">
        <lane id="-gneE63_0" index="0" speed="13.89" length="92.80" shape="1.60,400.00 1.60,307.20"/>
    </edge>
    <edge id="-gneE64" from="gneJ48" to="gneJ41" priority="1">
        <lane id="-gneE64_0" index="0" speed="13.89" length="92.80" shape="-100.00,301.60 -7.20,301.60"/>
    </edge>
    <edge id="-gneE65" from="gneJ49" to="gneJ5" priority="-1">
        <lane id="-gneE65_0" index="0" speed="13.89" length="92.80" shape="200.00,198.40 107.20,198.40"/>
    </edge>
    <edge id="gneE17" from="gneJ12" to="gneJ4" priority="-1">
        <lane id="gneE17_0" index="0" speed="13.89" length="92.80" shape="-100.00,201.60 -7.20,201.60"/>
    </edge>
    <edge id="gneE4" from="gneJ0" to="gneJ4" priority="-1">
        <lane id="gneE4_0" index="0" speed="13.89" length="92.80" shape="-1.60,100.00 -1.60,192.80"/>
    </edge>
    <edge id="gneE5" from="gneJ4" to="gneJ5" priority="-1">
        <lane id="gneE5_0" index="0" speed="13.89" length="85.60" shape="7.20,201.60 92.80,201.60"/>
    </edge>
    <edge id="gneE56" from="gneJ4" to="gneJ41" priority="1">
        <lane id="gneE56_0" index="0" speed="13.89" length="85.60" shape="-1.60,207.20 -1.60,292.80"/>
    </edge>
    <edge id="gneE57" from="gneJ41" to="gneJ42" priority="-1">
        <lane id="gneE57_0" index="0" speed="13.89" length="85.60" shape="7.20,301.60 92.80,301.60"/>
    </edge>
    <edge id="gneE58" from="gneJ42" to="gneJ5" priority="-1">
        <lane id="gneE58_0" index="0" speed="13.89" length="85.60" shape="101.60,292.80 101.60,207.20"/>
    </edge>
    <edge id="gneE60" from="gneJ5" to="gneJ44" priority="-1">
        <lane id="gneE60_0" index="0" speed="13.89" length="92.80" shape="101.60,192.80 101.60,100.00"/>
    </edge>
    <edge id="gneE61" from="gneJ42" to="gneJ45" priority="-1">
        <lane id="gneE61_0" index="0" speed="13.89" length="92.80" shape="107.20,301.60 200.00,301.60"/>
    </edge>
    <edge id="gneE62" from="gneJ42" to="gneJ46" priority="-1">
        <lane id="gneE62_0" index="0" speed="13.89" length="92.80" shape="98.40,307.20 98.40,400.00"/>
    </edge>
    <edge id="gneE63" from="gneJ41" to="gneJ47" priority="-1">
        <lane id="gneE63_0" index="0" speed="13.89" length="92.80" shape="-1.60,307.20 -1.60,400.00"/>
    </edge>
    <edge id="gneE64" from="gneJ41" to="gneJ48" priority="-1">
        <lane id="gneE64_0" index="0" speed="13.89" length="92.80" shape="-7.20,298.40 -100.00,298.40"/>
    </edge>
    <edge id="gneE65" from="gneJ5" to="gneJ49" priority="-1">
        <lane id="gneE65_0" index="0" speed="13.89" length="92.80" shape="107.20,201.60 200.00,201.60"/>
    </edge>

    <junction id="gneJ0" type="dead_end" x="0.00" y="100.00" incLanes="-gneE4_0" intLanes="" shape="0.00,100.00 3.20,100.00 0.00,100.00"/>
    <junction id="gneJ12" type="dead_end" x="-100.00" y="200.00" incLanes="-gneE17_0" intLanes="" shape="-100.00,200.00 -100.00,196.80 -100.00,200.00"/>
    <junction id="gneJ4" type="priority" x="0.00" y="200.00" incLanes="gneE4_0 -gneE5_0 -gneE56_0 gneE17_0" intLanes=":gneJ4_0_0 :gneJ4_1_0 :gneJ4_12_0 :gneJ4_3_0 :gneJ4_4_0 :gneJ4_5_0 :gneJ4_6_0 :gneJ4_7_0 :gneJ4_13_0 :gneJ4_9_0 :gneJ4_10_0 :gneJ4_11_0" shape="-3.20,192.80 3.20,192.80 3.64,195.02 4.20,195.80 4.98,196.36 5.98,196.69 7.20,196.80 7.20,203.20 4.98,203.64 4.20,204.20 3.64,204.98 3.31,205.98 3.20,207.20 -3.20,207.20 -3.64,204.98 -4.20,204.20 -4.98,203.64 -5.98,203.31 -7.20,203.20 -7.20,196.80 -4.98,196.36 -4.20,195.80 -3.64,195.02 -3.31,194.02">
        <request index="0"  response="000000000000" foes="000100010000" cont="0"/>
        <request index="1"  response="000000000000" foes="111100110000" cont="0"/>
        <request index="2"  response="000011000000" foes="110011110000" cont="1"/>
        <request index="3"  response="000010000000" foes="100010000000" cont="0"/>
        <request index="4"  response="000110000111" foes="100110000111" cont="0"/>
        <request index="5"  response="011110000110" foes="011110000110" cont="0"/>
        <request index="6"  response="000000000000" foes="010000000100" cont="0"/>
        <request index="7"  response="000000000000" foes="110000111100" cont="0"/>
        <request index="8"  response="000000000011" foes="110000110011" cont="1"/>
        <request index="9"  response="000000000010" foes="000000100010" cont="0"/>
        <request index="10" response="000111000110" foes="000111100110" cont="0"/>
        <request index="11" response="000110011110" foes="000110011110" cont="0"/>
    </junction>
    <junction id="gneJ41" type="priority" x="0.00" y="300.00" incLanes="gneE56_0 -gneE57_0 -gneE63_0 -gneE64_0" intLanes=":gneJ41_0_0 :gneJ41_1_0 :gneJ41_12_0 :gneJ41_3_0 :gneJ41_4_0 :gneJ41_5_0 :gneJ41_6_0 :gneJ41_7_0 :gneJ41_13_0 :gneJ41_9_0 :gneJ41_10_0 :gneJ41_11_0" shape="-3.20,292.80 3.20,292.80 3.64,295.02 4.20,295.80 4.98,296.36 5.98,296.69 7.20,296.80 7.20,303.20 4.98,303.64 4.20,304.20 3.64,304.98 3.31,305.98 3.20,307.20 -3.20,307.20 -3.64,304.98 -4.20,304.20 -4.98,303.64 -5.98,303.31 -7.20,303.20 -7.20,296.80 -4.98,296.36 -4.20,295.80 -3.64,295.02 -3.31,294.02">
        <request index="0"  response="000000000000" foes="000100010000" cont="0"/>
        <request index="1"  response="000000000000" foes="111100110000" cont="0"/>
        <request index="2"  response="000011000000" foes="110011110000" cont="1"/>
        <request index="3"  response="000010000000" foes="100010000000" cont="0"/>
        <request index="4"  response="000110000111" foes="100110000111" cont="0"/>
        <request index="5"  response="011110000110" foes="011110000110" cont="0"/>
        <request index="6"  response="000000000000" foes="010000000100" cont="0"/>
        <request index="7"  response="000000000000" foes="110000111100" cont="0"/>
        <request index="8"  response="000000000011" foes="110000110011" cont="1"/>
        <request index="9"  response="000000000010" foes="000000100010" cont="0"/>
        <request index="10" response="000111000110" foes="000111100110" cont="0"/>
        <request index="11" response="000110011110" foes="000110011110" cont="0"/>
    </junction>
    <junction id="gneJ42" type="priority" x="100.00" y="300.00" incLanes="-gneE58_0 -gneE61_0 -gneE62_0 gneE57_0" intLanes=":gneJ42_0_0 :gneJ42_1_0 :gneJ42_12_0 :gneJ42_3_0 :gneJ42_4_0 :gneJ42_5_0 :gneJ42_6_0 :gneJ42_7_0 :gneJ42_13_0 :gneJ42_9_0 :gneJ42_10_0 :gneJ42_11_0" shape="96.80,292.80 103.20,292.80 103.64,295.02 104.20,295.80 104.98,296.36 105.98,296.69 107.20,296.80 107.20,303.20 104.98,303.64 104.20,304.20 103.64,304.98 103.31,305.98 103.20,307.20 96.80,307.20 96.36,304.98 95.80,304.20 95.02,303.64 94.02,303.31 92.80,303.20 92.80,296.80 95.02,296.36 95.80,295.80 96.36,295.02 96.69,294.02">
        <request index="0"  response="000000000000" foes="000100010000" cont="0"/>
        <request index="1"  response="000000000000" foes="111100110000" cont="0"/>
        <request index="2"  response="000011000000" foes="110011110000" cont="1"/>
        <request index="3"  response="000010000000" foes="100010000000" cont="0"/>
        <request index="4"  response="000110000111" foes="100110000111" cont="0"/>
        <request index="5"  response="011110000110" foes="011110000110" cont="0"/>
        <request index="6"  response="000000000000" foes="010000000100" cont="0"/>
        <request index="7"  response="000000000000" foes="110000111100" cont="0"/>
        <request index="8"  response="000000000011" foes="110000110011" cont="1"/>
        <request index="9"  response="000000000010" foes="000000100010" cont="0"/>
        <request index="10" response="000111000110" foes="000111100110" cont="0"/>
        <request index="11" response="000110011110" foes="000110011110" cont="0"/>
    </junction>
    <junction id="gneJ44" type="dead_end" x="100.00" y="100.00" incLanes="gneE60_0" intLanes="" shape="100.00,100.00 103.20,100.00 100.00,100.00"/>
    <junction id="gneJ45" type="dead_end" x="200.00" y="300.00" incLanes="gneE61_0" intLanes="" shape="200.00,300.00 200.00,303.20 200.00,300.00"/>
    <junction id="gneJ46" type="dead_end" x="100.00" y="400.00" incLanes="gneE62_0" intLanes="" shape="100.00,400.00 96.80,400.00 100.00,400.00"/>
    <junction id="gneJ47" type="dead_end" x="0.00" y="400.00" incLanes="gneE63_0" intLanes="" shape="0.00,400.00 -3.20,400.00 0.00,400.00"/>
    <junction id="gneJ48" type="dead_end" x="-100.00" y="300.00" incLanes="gneE64_0" intLanes="" shape="-100.00,300.00 -100.00,296.80 -100.00,300.00"/>
    <junction id="gneJ49" type="dead_end" x="200.00" y="200.00" incLanes="gneE65_0" intLanes="" shape="200.00,200.00 200.00,203.20 200.00,200.00"/>
    <junction id="gneJ5" type="priority" x="100.00" y="200.00" incLanes="-gneE60_0 -gneE65_0 gneE58_0 gneE5_0" intLanes=":gneJ5_0_0 :gneJ5_1_0 :gneJ5_12_0 :gneJ5_3_0 :gneJ5_4_0 :gneJ5_5_0 :gneJ5_6_0 :gneJ5_7_0 :gneJ5_13_0 :gneJ5_9_0 :gneJ5_10_0 :gneJ5_11_0" shape="96.80,192.80 103.20,192.80 103.64,195.02 104.20,195.80 104.98,196.36 105.98,196.69 107.20,196.80 107.20,203.20 104.98,203.64 104.20,204.20 103.64,204.98 103.31,205.98 103.20,207.20 96.80,207.20 96.36,204.98 95.80,204.20 95.02,203.64 94.02,203.31 92.80,203.20 92.80,196.80 95.02,196.36 95.80,195.80 96.36,195.02 96.69,194.02">
        <request index="0"  response="000000000000" foes="000100010000" cont="0"/>
        <request index="1"  response="000000000000" foes="111100110000" cont="0"/>
        <request index="2"  response="000011000000" foes="110011110000" cont="1"/>
        <request index="3"  response="000010000000" foes="100010000000" cont="0"/>
        <request index="4"  response="000110000111" foes="100110000111" cont="0"/>
        <request index="5"  response="011110000110" foes="011110000110" cont="0"/>
        <request index="6"  response="000000000000" foes="010000000100" cont="0"/>
        <request index="7"  response="000000000000" foes="110000111100" cont="0"/>
        <request index="8"  response="000000000011" foes="110000110011" cont="1"/>
        <request index="9"  response="000000000010" foes="000000100010" cont="0"/>
        <request index="10" response="000111000110" foes="000111100110" cont="0"/>
        <request index="11" response="000110011110" foes="000110011110" cont="0"/>
    </junction>

    <junction id=":gneJ4_12_0" type="internal" x="0.00" y="198.40" incLanes=":gneJ4_2_0 -gneE56_0" intLanes=":gneJ4_4_0 :gneJ4_5_0 :gneJ4_6_0 :gneJ4_7_0 :gneJ4_10_0 :gneJ4_11_0"/>
    <junction id=":gneJ4_13_0" type="internal" x="-0.00" y="201.60" incLanes=":gneJ4_8_0 gneE4_0" intLanes=":gneJ4_0_0 :gneJ4_1_0 :gneJ4_4_0 :gneJ4_5_0 :gneJ4_10_0 :gneJ4_11_0"/>
    <junction id=":gneJ41_12_0" type="internal" x="-0.00" y="298.40" incLanes=":gneJ41_2_0 -gneE63_0" intLanes=":gneJ41_4_0 :gneJ41_5_0 :gneJ41_6_0 :gneJ41_7_0 :gneJ41_10_0 :gneJ41_11_0"/>
    <junction id=":gneJ41_13_0" type="internal" x="0.00" y="301.60" incLanes=":gneJ41_8_0 gneE56_0" intLanes=":gneJ41_0_0 :gneJ41_1_0 :gneJ41_4_0 :gneJ41_5_0 :gneJ41_10_0 :gneJ41_11_0"/>
    <junction id=":gneJ42_12_0" type="internal" x="100.00" y="298.40" incLanes=":gneJ42_2_0 -gneE62_0" intLanes=":gneJ42_4_0 :gneJ42_5_0 :gneJ42_6_0 :gneJ42_7_0 :gneJ42_10_0 :gneJ42_11_0"/>
    <junction id=":gneJ42_13_0" type="internal" x="100.00" y="301.60" incLanes=":gneJ42_8_0 -gneE58_0" intLanes=":gneJ42_0_0 :gneJ42_1_0 :gneJ42_4_0 :gneJ42_5_0 :gneJ42_10_0 :gneJ42_11_0"/>
    <junction id=":gneJ5_12_0" type="internal" x="100.00" y="198.40" incLanes=":gneJ5_2_0 gneE58_0" intLanes=":gneJ5_4_0 :gneJ5_5_0 :gneJ5_6_0 :gneJ5_7_0 :gneJ5_10_0 :gneJ5_11_0"/>
    <junction id=":gneJ5_13_0" type="internal" x="100.00" y="201.60" incLanes=":gneJ5_8_0 -gneE60_0" intLanes=":gneJ5_0_0 :gneJ5_1_0 :gneJ5_4_0 :gneJ5_5_0 :gneJ5_10_0 :gneJ5_11_0"/>

    <connection from="-gneE5" to="-gneE4" fromLane="0" toLane="0" via=":gneJ4_3_0" dir="l" state="m"/>
    <connection from="-gneE5" to="-gneE17" fromLane="0" toLane="0" via=":gneJ4_4_0" dir="s" state="m"/>
    <connection from="-gneE5" to="gneE56" fromLane="0" toLane="0" via=":gneJ4_5_0" dir="r" state="m"/>
    <connection from="-gneE56" to="gneE5" fromLane="0" toLane="0" via=":gneJ4_6_0" dir="l" state="M"/>
    <connection from="-gneE56" to="-gneE4" fromLane="0" toLane="0" via=":gneJ4_7_0" dir="s" state="M"/>
    <connection from="-gneE56" to="-gneE17" fromLane="0" toLane="0" via=":gneJ4_8_0" dir="r" state="m"/>
    <connection from="-gneE57" to="-gneE56" fromLane="0" toLane="0" via=":gneJ41_3_0" dir="l" state="m"/>
    <connection from="-gneE57" to="gneE64" fromLane="0" toLane="0" via=":gneJ41_4_0" dir="s" state="m"/>
    <connection from="-gneE57" to="gneE63" fromLane="0" toLane="0" via=":gneJ41_5_0" dir="r" state="m"/>
    <connection from="-gneE58" to="-gneE57" fromLane="0" toLane="0" via=":gneJ42_0_0" dir="l" state="M"/>
    <connection from="-gneE58" to="gneE62" fromLane="0" toLane="0" via=":gneJ42_1_0" dir="s" state="M"/>
    <connection from="-gneE58" to="gneE61" fromLane="0" toLane="0" via=":gneJ42_2_0" dir="r" state="m"/>
    <connection from="-gneE60" to="-gneE5" fromLane="0" toLane="0" via=":gneJ5_0_0" dir="l" state="M"/>
    <connection from="-gneE60" to="-gneE58" fromLane="0" toLane="0" via=":gneJ5_1_0" dir="s" state="M"/>
    <connection from="-gneE60" to="gneE65" fromLane="0" toLane="0" via=":gneJ5_2_0" dir="r" state="m"/>
    <connection from="-gneE61" to="gneE58" fromLane="0" toLane="0" via=":gneJ42_3_0" dir="l" state="m"/>
    <connection from="-gneE61" to="-gneE57" fromLane="0" toLane="0" via=":gneJ42_4_0" dir="s" state="m"/>
    <connection from="-gneE61" to="gneE62" fromLane="0" toLane="0" via=":gneJ42_5_0" dir="r" state="m"/>
    <connection from="-gneE62" to="gneE61" fromLane="0" toLane="0" via=":gneJ42_6_0" dir="l" state="M"/>
    <connection from="-gneE62" to="gneE58" fromLane="0" toLane="0" via=":gneJ42_7_0" dir="s" state="M"/>
    <connection from="-gneE62" to="-gneE57" fromLane="0" toLane="0" via=":gneJ42_8_0" dir="r" state="m"/>
    <connection from="-gneE63" to="gneE57" fromLane="0" toLane="0" via=":gneJ41_6_0" dir="l" state="M"/>
    <connection from="-gneE63" to="-gneE56" fromLane="0" toLane="0" via=":gneJ41_7_0" dir="s" state="M"/>
    <connection from="-gneE63" to="gneE64" fromLane="0" toLane="0" via=":gneJ41_8_0" dir="r" state="m"/>
    <connection from="-gneE64" to="gneE63" fromLane="0" toLane="0" via=":gneJ41_9_0" dir="l" state="m"/>
    <connection from="-gneE64" to="gneE57" fromLane="0" toLane="0" via=":gneJ41_10_0" dir="s" state="m"/>
    <connection from="-gneE64" to="-gneE56" fromLane="0" toLane="0" via=":gneJ41_11_0" dir="r" state="m"/>
    <connection from="-gneE65" to="gneE60" fromLane="0" toLane="0" via=":gneJ5_3_0" dir="l" state="m"/>
    <connection from="-gneE65" to="-gneE5" fromLane="0" toLane="0" via=":gneJ5_4_0" dir="s" state="m"/>
    <connection from="-gneE65" to="-gneE58" fromLane="0" toLane="0" via=":gneJ5_5_0" dir="r" state="m"/>
    <connection from="gneE17" to="gneE56" fromLane="0" toLane="0" via=":gneJ4_9_0" dir="l" state="m"/>
    <connection from="gneE17" to="gneE5" fromLane="0" toLane="0" via=":gneJ4_10_0" dir="s" state="m"/>
    <connection from="gneE17" to="-gneE4" fromLane="0" toLane="0" via=":gneJ4_11_0" dir="r" state="m"/>
    <connection from="gneE4" to="-gneE17" fromLane="0" toLane="0" via=":gneJ4_0_0" dir="l" state="M"/>
    <connection from="gneE4" to="gneE56" fromLane="0" toLane="0" via=":gneJ4_1_0" dir="s" state="M"/>
    <connection from="gneE4" to="gneE5" fromLane="0" toLane="0" via=":gneJ4_2_0" dir="r" state="m"/>
    <connection from="gneE5" to="-gneE58" fromLane="0" toLane="0" via=":gneJ5_9_0" dir="l" state="m"/>
    <connection from="gneE5" to="gneE65" fromLane="0" toLane="0" via=":gneJ5_10_0" dir="s" state="m"/>
    <connection from="gneE5" to="gneE60" fromLane="0" toLane="0" via=":gneJ5_11_0" dir="r" state="m"/>
    <connection from="gneE56" to="gneE64" fromLane="0" toLane="0" via=":gneJ41_0_0" dir="l" state="M"/>
    <connection from="gneE56" to="gneE63" fromLane="0" toLane="0" via=":gneJ41_1_0" dir="s" state="M"/>
    <connection from="gneE56" to="gneE57" fromLane="0" toLane="0" via=":gneJ41_2_0" dir="r" state="m"/>
    <connection from="gneE57" to="gneE62" fromLane="0" toLane="0" via=":gneJ42_9_0" dir="l" state="m"/>
    <connection from="gneE57" to="gneE61" fromLane="0" toLane="0" via=":gneJ42_10_0" dir="s" state="m"/>
    <connection from="gneE57" to="gneE58" fromLane="0" toLane="0" via=":gneJ42_11_0" dir="r" state="m"/>
    <connection from="gneE58" to="gneE65" fromLane="0" toLane="0" via=":gneJ5_6_0" dir="l" state="M"/>