<?xml version="1.0" encoding="UTF-8"?>

<!-- generated on 2025-11-21 15:28:18 by Eclipse SUMO netedit Version 1.19.0
<configuration xmlns:xsi="http://www.w3.org/2001/XMLSchema-instance" xsi:noNamespaceSchemaLocation="http://sumo.dlr.de/xsd/neteditConfiguration.xsd">

    <input>
        <sumo-net-file value="C:\Users\unnom\intersection-rl-gnn\data\intersection.net.xml"/>
    </input>

    <output>
        <output-file value="C:\Users\unnom\intersection-rl-gnn\data\intersection.net.xml"/>
    </output>

    <processing>
        <geometry.min-radius.fix.railways value="false"/>
        <geometry.max-grade.fix value="false"/>
        <offset.disable-normalization value="true"/>
        <lefthand value="1"/>
    </processing>

    <junctions>
        <no-turnarounds value="true"/>
        <junctions.corner-detail value="5"/>
        <junctions.limit-turn-speed value="5.50"/>
        <rectangular-lane-cut value="0"/>
    </junctions>

    <pedestrian>
        <walkingareas value="0"/>
    </pedestrian>

</configuration>
-->

<net version="1.16" junctionCornerDetail="5" lefthand="true" limitTurnSpeed="5.50" xmlns:xsi="http://www.w3.org/2001/XMLSchema-instance" xsi:noNamespaceSchemaLocation="http://sumo.dlr.de/xsd/net_file.xsd">

    <location netOffset="0.00,0.00" convBoundary="-100.00,100.00,200.00,400.00" origBoundary="-10000000000.00,-10000000000.00,10000000000.00,10000000000.00" projParameter="!"/>

    <edge id=":gneJ4_0" function="internal">
        <lane id=":gneJ4_0_0" index="0" speed="13.89" length="14.40" shape="-1.60,192.80 -1.60,207.20"/>
    </edge>
    <edge id=":gneJ4_1" function="internal">
        <lane id=":gneJ4_1_0" index="0" speed="13.89" length="14.40" shape="7.20,198.40 -7.20,198.40"/>
    </edge>
    <edge id=":gneJ4_2" function="internal">
        <lane id=":gneJ4_2_0" index="0" speed="13.89" length="14.40" shape="1.60,207.20 1.60,192.80"/>
    </edge>
    <edge id=":gneJ4_3" function="internal">
        <lane id=":gneJ4_3_0" index="0" speed="13.89" length="14.40" shape="-7.20,201.60 7.20,201.60"/>
    </edge>
    <edge id=":gneJ41_0" function="internal">
        <lane id=":gneJ41_0_0" index="0" speed="13.89" length="14.40" shape="-1.60,292.80 -1.60,307.20"/>
    </edge>
    <edge id=":gneJ41_1" function="internal">
        <lane id=":gneJ41_1_0" index="0" speed="13.89" length="14.40" shape="7.20,298.40 -7.20,298.40"/>
    </edge>
    <edge id=":gneJ41_2" function="internal">
        <lane id=":gneJ41_2_0" index="0" speed="13.89" length="14.40" shape="1.60,307.20 1.60,292.80"/>
    </edge>
    <edge id=":gneJ41_3" function="internal">
        <lane id=":gneJ41_3_0" index="0" speed="13.89" length="14.40" shape="-7.20,301.60 7.20,301.60"/>
    </edge>
    <edge id=":gneJ42_0" function="internal">
        <lane id=":gneJ42_0_0" index="0" speed="13.89" length="14.40" shape="98.40,292.80 98.40,307.20"/>
    </edge>
    <edge id=":gneJ42_1" function="internal">
        <lane id=":gneJ42_1_0" index="0" speed="13.89" length="14.40" shape="107.20,298.40 92.80,298.40"/>
    </edge>
    <edge id=":gneJ42_2" function="internal">
        <lane id=":gneJ42_2_0" index="0" speed="13.89" length="14.40" shape="101.60,307.20 101.60,292.80"/>
    </edge>
    <edge id=":gneJ42_3" function="internal">
        <lane id=":gneJ42_3_0" index="0" speed="13.89" length="14.40" shape="92.80,301.60 107.20,301.60"/>
    </edge>
    <edge id=":gneJ5_0" function="internal">
        <lane id=":gneJ5_0_0" index="0" speed="13.89" length="14.40" shape="98.40,192.80 98.40,207.20"/>
    </edge>
    <edge id=":gneJ5_1" function="internal">
        <lane id=":gneJ5_1_0" index="0" speed="13.89" length="14.40" shape="107.20,198.40 92.80,198.40"/>
    </edge>
    <edge id=":gneJ5_2" function="internal">
        <lane id=":gneJ5_2_0" index="0" speed="13.89" length="14.40" shape="101.60,207.20 101.60,192.80"/>
    </edge>
    <edge id=":gneJ5_3" function="internal">
        <lane id=":gneJ5_3_0" index="0" speed="13.89" length="14.40" shape="92.80,201.60 107.20,201.60"/>
    </edge>

    <edge id="-gneE17" from="gneJ4" to="gneJ12" priority="-1">
        <lane id="-gneE17_0" index="0" speed="13.89" length="92.80" shape="-7.20,198.40 -100.00,198.40"/>
    </edge>
    <edge id="-gneE4" from="gneJ4" to="gneJ0" priority="-1">
        <lane id="-gneE4_0" index="0" speed="13.89" length="92.80" shape="1.60,192.80 1.60,100.00"/>
    </edge>
    <edge id="-gneE5" from="gneJ5" to="gneJ4" priority="-1">
        <lane id="-gneE5_0" index="0" speed="13.89" length="85.60" shape="92.80,198.40 7.20,198.40"/>
    </edge>
    <edge id="-gneE56" from="gneJ41" to="gneJ4" priority="-1">
        <lane id="-gneE56_0" index="0" speed="13.89" length="85.60" shape="1.60,292.80 1.60,207.20"/>
    </edge>
    <edge id="-gneE57" from="gneJ42" to="gneJ41" priority="1">
        <lane id="-gneE57_0" index="0" speed="13.89" length="85.60" shape="92.80,298.40 7.20,298.40"/>
    </edge>
    <edge id="-gneE58" from="gneJ5" to="gneJ42" priority="-1">
        <lane id="-gneE58_0" index="0" speed="13.89" length="85.60" shape="98.40,207.20 98.40,292.80"/>
    </edge>
    <edge id="-gneE60" from="gneJ44" to="gneJ5" priority="-1">
        <lane id="-gneE60_0" index="0" speed="13.89" length="92.80" shape="98.40,100.00 98.40,192.80"/>
    </edge>
    <edge id="-gneE61" from="gneJ45" to="gneJ42" priority="-1">
        <lane id="-gneE61_0" index="0" speed="13.89" length="92.80" shape="200.00,298.40 107.20,298.40"/>
    </edge>
    <edge id="-gneE62" from="gneJ46" to="gneJ42" priority="-1">
        <lane id="-gneE62_0" index="0" speed="13.89" length="92.80" shape="101.60,400.00 101.60,307.20"/>
    </edge>
    <edge id="-gneE63" from="gneJ47" to="gneJ41" priority="1">
        <lane id="-gneE63_0" index="0" speed="13.89" length="92.80" shape="1.60,400.00 1.60,307.20"/>
    </edge>
    <edge id="-gneE64" from="gneJ48" to="gneJ41" priority="1">
        <lane id="-gneE64_0" index="0" speed="13.89" length="92.80" shape="-100.00,301.60 -7.20,301.60"/>
    </edge>
    <edge id="-gneE65" from="gneJ49" to="gneJ5" priority="-1">
        <lane id="-gneE65_0" index="0" speed="13.89" length="92.80" shape="200.00,198.40 107.20,198.40"/>
    </edge>
    <edge id="gneE17" from="gneJ12" to="gneJ4" priority="-1">
        <lane id="gneE17_0" index="0" speed="13.89" length="92.80" shape="-100.00,201.60 -7.20,201.60"/>
    </edge>
    <edge id="gneE4" from="gneJ0" to="gneJ4" priority="-1">
        <lane id="gneE4_0" index="0" speed="13.89" length="92.80" shape="-1.60,100.00 -1.60,192.80"/>
    </edge>
    <edge id="gneE5" from="gneJ4" to="gneJ5" priority="-1">
        <lane id="gneE5_0" index="0" speed="13.89" length="85.60" shape="7.20,201.60 92.80,201.60"/>
    </edge>
    <edge id="gneE56" from="gneJ4" to="gneJ41" priority="1">
        <lane id="gneE56_0" index="0" speed="13.89" length="85.60" shape="-1.60,207.20 -1.60,292.80"/>
    </edge>
    <edge id="gneE57" from="gneJ41" to="gneJ42" priority="-1">
        <lane id="gneE57_0" index="0" speed="13.89" length="85.60" shape="7.20,301.60 92.80,301.60"/>
    </edge>
    <edge id="gneE58" from="gneJ42" to="gneJ5" priority="-1">
        <lane id="gneE58_0" index="0" speed="13.89" length="85.60" shape="101.60,292.80 101.60,207.20"/>
    </edge>
    <edge id="gneE60" from="gneJ5" to="gneJ44" priority="-1">
        <lane id="gneE60_0" index="0" speed="13.89" length="92.80" shape="101.60,192.80 101.60,100.00"/>
    </edge>
    <edge id="gneE61" from="gneJ42" to="gneJ45" priority="-1">
        <lane id="gneE61_0" index="0" speed="13.89" length="92.80" shape="107.20,301.60 200.00,301.60"/>
    </edge>
    <edge id="gneE62" from="gneJ42" to="gneJ46" priority="-1">
        <lane id="gneE62_0" index="0" speed="13.89" length="92.80" shape="98.40,307.20 98.40,400.00"/>
    </edge>
    <edge id="gneE63" from="gneJ41" to="gneJ47" priority="-1">
        <lane id="gneE63_0" index="0" speed="13.89" length="92.80" shape="-1.60,307.20 -1.60,400.00"/>
    </edge>
    <edge id="gneE64" from="gneJ41" to="gneJ48" priority="-1">
        <lane id="gneE64_0" index="0" speed="13.89" length="92.80" shape="-7.20,298.40 -100.00,298.40"/>
    </edge>
    <edge id="gneE65" from="gneJ5" to="gneJ49" priority="-1">
        <lane id="gneE65_0" index="0" speed="13.89" length="92.80" shape="107.20,201.60 200.00,201.60"/>
    </edge>

    <junction id="gneJ0" type="dead_end" x="0.00" y="100.00" incLanes="-gneE4_0" intLanes="" shape="0.00,100.00 3.20,100.00 0.00,100.00"/>
    <junction id="gneJ12" type="dead_end" x="-100.00" y="200.00" incLanes="-gneE17_0" intLanes="" shape="-100.00,200.00 -100.00,196.80 -100.00,200.00"/>
    <junction id="gneJ4" type="priority" x="0.00" y="200.00" incLanes="gneE4_0 -gneE5_0 -gneE56_0 gneE17_0" intLanes=":gneJ4_0_0 :gneJ4_1_0 :gneJ4_2_0 :gneJ4_3_0" shape="-3.20,192.80 3.20,192.80 3.64,195.02 4.20,195.80 4.98,196.36 5.98,196.69 7.20,196.80 7.20,203.20 4.98,203.64 4.20,204.20 3.64,204.98 3.31,205.98 3.20,207.20 -3.20,207.20 -3.64,204.98 -4.20,204.20 -4.98,203.64 -5.98,203.31 -7.20,203.20 -7.20,196.80 -4.98,196.36 -4.20,195.80 -3.64,195.02 -3.31,194.02">
        <request index="0" response="0000" foes="1010" cont="0"/>
        <request index="1" response="0101" foes="0101" cont="0"/>
        <request index="2" response="0000" foes="1010" cont="0"/>
        <request index="3" response="0101" foes="0101" cont="0"/>
    </junction>
    <junction id="gneJ41" type="priority" x="0.00" y="300.00" incLanes="gneE56_0 -gneE57_0 -gneE63_0 -gneE64_0" intLanes=":gneJ41_0_0 :gneJ41_1_0 :gneJ41_2_0 :gneJ41_3_0" shape="-3.20,292.80 3.20,292.80 3.64,295.02 4.20,295.80 4.98,296.36 5.98,296.69 7.20,296.80 7.20,303.20 4.98,303.64 4.20,304.20 3.64,304.98 3.31,305.98 3.20,307.20 -3.20,307.20 -3.64,304.98 -4.20,304.20 -4.98,303.64 -5.98,303.31 -7.20,303.20 -7.20,296.80 -4.98,296.36 -4.20,295.80 -3.64,295.02 -3.31,294.02">
        <request index="0" response="0000" foes="1010" cont="0"/>
        <request index="1" response="0101" foes="0101" cont="0"/>
        <request index="2" response="0000" foes="1010" cont="0"/>
        <request index="3" response="0101" foes="0101" cont="0"/>
    </junction>
    <junction id="gneJ42" type="priority" x="100.00" y="300.00" incLanes="-gneE58_0 -gneE61_0 -gneE62_0 gneE57_0" intLanes=":gneJ42_0_0 :gneJ42_1_0 :gneJ42_2_0 :gneJ42_3_0" shape="96.80,292.80 103.20,292.80 103.64,295.02 104.20,295.80 104.98,296.36 105.98,296.69 107.20,296.80 107.20,303.20 104.98,303.64 104.20,304.20 103.64,304.98 103.31,305.98 103.20,307.20 96.80,307.20 96.36,304.98 95.80,304.20 95.02,303.64 94.02,303.31 92.80,303.20 92.80,296.80 95.02,296.36 95.80,295.80 96.36,295.02 96.69,294.02">
        <request index="0" response="0000" foes="1010" cont="0"/>
        <request index="1" response="0101" foes="0101" cont="0"/>
        <request index="2" response="0000" foes="1010" cont="0"/>
        <request index="3" response="0101" foes="0101" cont="0"/>
    </junction>
    <junction id="gneJ44" type="dead_end" x="100.00" y="100.00" incLanes="gneE60_0" intLanes="" shape="100.00,100.00 103.20,100.00 100.00,100.00"/>
    <junction id="gneJ45" type="dead_end" x="200.00" y="300.00" incLanes="gneE61_0" intLanes="" shape="200.00,300.00 200.00,303.20 200.00,300.00"/>
    <junction id="gneJ46" type="dead_end" x="100.00" y="400.00" incLanes="gneE62_0" intLanes="" shape="100.00,400.00 96.80,400.00 100.00,400.00"/>
    <junction id="gneJ47" type="dead_end" x="0.00" y="400.00" incLanes="gneE63_0" intLanes="" shape="0.00,400.00 -3.20,400.00 0.00,400.00"/>
    <junction id="gneJ48" type="dead_end" x="-100.00" y="300.00" incLanes="gneE64_0" intLanes="" shape="-100.00,300.00 -100.00,296.80 -100.00,300.00"/>
    <junction id="gneJ49" type="dead_end" x="200.00" y="200.00" incLanes="gneE65_0" intLanes="" shape="200.00,200.00 200.00,203.20 200.00,200.00"/>
    <junction id="gneJ5" type="priority" x="100.00" y="200.00" incLanes="-gneE60_0 -gneE65_0 gneE58_0 gneE5_0" intLanes=":gneJ5_0_0 :gneJ5_1_0 :gneJ5_2_0 :gneJ5_3_0" shape="96.80,192.80 103.20,192.80 103.64,195.02 104.20,195.80 104.98,196.36 105.98,196.69 107.20,196.80 107.20,203.20 104.98,203.64 104.20,204.20 103.64,204.98 103.31,205.98 103.20,207.20 96.80,207.20 96.36,204.98 95.80,204.20 95.02,203.64 94.02,203.31 92.80,203.20 92.80,196.80 95.02,196.36 95.80,195.80 96.36,195.02 96.69,194.02">
        <request index="0" response="0000" foes="1010" cont="0"/>
        <request index="1" response="0101" foes="0101" cont="0"/>
        <request index="2" response="0000" foes="1010" cont="0"/>
        <request index="3" response="0101" foes="0101" cont="0"/>
    </junction>

    <connection from="-gneE5" to="-gneE17" fromLane="0" toLane="0" via=":gneJ4_1_0" dir="s" state="m"/>
    <connection from="-gneE56" to="-gneE4" fromLane="0" toLane="0" via=":gneJ4_2_0" dir="s" state="M"/>
    <connection from="-gneE57" to="gneE64" fromLane="0" toLane="0" via=":gneJ41_1_0" dir="s" state="m"/>
    <connection from="-gneE58" to="gneE62" fromLane="0" toLane="0" via=":gneJ42_0_0" dir="s" state="M"/>
    <connection from="-gneE60" to="-gneE58" fromLane="0" toLane="0" via=":gneJ5_0_0" dir="s" state="M"/>
    <connection from="-gneE61" to="-gneE57" fromLane="0" toLane="0" via=":gneJ42_1_0" dir="s" state="m"/>
    <connection from="-gneE62" to="gneE58" fromLane="0" toLane="0" via=":gneJ42_2_0" dir="s" state="M"/>
    <connection from="-gneE63" to="-gneE56" fromLane="0" toLane="0" via=":gneJ41_2_0" dir="s" state="M"/>
    <connection from="-gneE64" to="gneE57" fromLane="0" toLane="0" via=":gneJ41_3_0" dir="s" state="m"/>
    <connection from="-gneE65" to="-gneE5" fromLane="0" toLane="0" via=":gneJ5_1_0" dir="s" state="m"/>
    <connection from="gneE17" to="gneE5" fromLane="0" toLane="0" via=":gneJ4_3_0" dir="s" state="m"/>
    <connection from="gneE4" to="gneE56" fromLane="0" toLane="0" via=":gneJ4_0_0" dir="s" state="M"/>
    <connection from="gneE5" to="gneE65" fromLane="0" toLane="0" via=":gneJ5_3_0" dir="s" state="m"/>
    <connection from="gneE56" to="gneE63" fromLane="0" toLane="0" via=":gneJ41_0_0" dir="s" state="M"/>
    <connection from="gneE57" to="gneE61" fromLane="0" toLane="0" via=":gneJ42_3_0" dir="s" state="m"/>
    <connection from="gneE58" to="gneE60" fromLane="0" toLane="0" via=":gneJ5_2_0" dir="s" state="M"/>

    <connection from=":gneJ4_0" to="gneE56" fromLane="0" toLane="0" dir="s" state="M"/>
    <connection from=":gneJ4_1" to="-gneE17" fromLane="0" toLane="0" dir="s" state="M"/>
    <connection from=":gneJ4_2" to="-gneE4" fromLane="0" toLane="0" dir="s" state="M"/>
    <connection from=":gneJ4_3" to="gneE5" fromLane="0" toLane="0" dir="s" state="M"/>
    <connection from=":gneJ41_0" to="gneE63" fromLane="0" toLane="0" dir="s" state="M"/>
    <connection from=":gneJ41_1" to="gneE64" fromLane="0" toLane="0" dir="s" state="M"/>
    <connection from=":gneJ41_2" to="-gneE56" fromLane="0" toLane="0" dir="s" state="M"/>
    <connection from=":gneJ41_3" to="gneE57" fromLane="0" toLane="0" dir="s" state="M"/>
    <connection from=":gneJ42_0" to="gneE62" fromLane="0" toLane="0" dir="s" state="M"/>
    <connection from=":gneJ42_1" to="-gneE57" fromLane="0" toLane="0" dir="s" state="M"/>
    <connection from=":gneJ42_2" to="gneE58" fromLane="0" toLane="0" dir="s" state="M"/>
    <connection from=":gneJ42_3" to="gneE61" fromLane="0" toLane="0" dir="s" state="M"/>
    <connection from=":gneJ5_0" to="-gneE58" fromLane="0" toLane="0" dir="s" state="M"/>
    <connection from=":gneJ5_1" to="-gneE5" fromLane="0" toLane="0" dir="s" state="M"/>
    <connection from=":gneJ5_2" to="gneE60" fromLane="0" toLane="0" dir="s" state="M"/>
    <connection from=":gneJ5_3" to="gneE65" fromLane="0" toLane="0" dir="s" state="M"/>

</net>
