<additional>
    <vType id="block_car" jmIgnoreKeepClearTime="10" />

    <vType id="normal_car" />
           
</additional>