<additional>
    <vType id="block_car" jmIgnoreJunctionFoeProb="1" />

    <vType id="normal_car" />
           
</additional>